/*---------------------------------------------------------------------------*\
| =========                 |                                                 |
| \\      /  F ield         | OpenFOAM: The Open Source CFD Toolbox           |
|  \\    /   O peration     | Version:  2312                                  |
|   \\  /    A nd           | Website:  www.openfoam.com                      |
|    \\/     M anipulation  |                                                 |
\*---------------------------------------------------------------------------*/
Build  : _c39a0f64-20231220 OPENFOAM=2312 version=2312
Arch   : "LSB;label=32;scalar=64"
Exec   : buoyantSimpleFoam
Date   : Jul 01 2026
Time   : 22:14:57
Host   : fd52061681a7
PID    : 223
I/O    : uncollated
Case   : /case
nProcs : 1
trapFpe: Floating point exception trapping enabled (FOAM_SIGFPE).
fileModificationChecking : Monitoring run-time modified files using timeStampMaster (fileModificationSkew 5, maxFileModificationPolls 20)
allowSystemOperations : Allowing user-supplied system call operations

// * * * * * * * * * * * * * * * * * * * * * * * * * * * * * * * * * * * * * //
Create time

Create mesh for time = 0


SIMPLE: convergence criteria
    field p_rgh	 tolerance 0.0001
    field U	 tolerance 0.0001
    field h	 tolerance 0.0001

Reading thermophysical properties

Selecting thermodynamics package 
{
    type            heRhoThermo;
    mixture         pureMixture;
    transport       const;
    thermo          hConst;
    equationOfState perfectGas;
    specie          specie;
    energy          sensibleEnthalpy;
}

Reading field U

Reading/calculating face flux field phi

Creating turbulence model

Selecting turbulence model type laminar
Selecting laminar stress model Stokes

Reading g

Reading hRef
Calculating field g.h

Reading field p_rgh

No MRF models present

Selecting radiationModel viewFactor
Selecting absorptionEmissionModel none
Selecting scatterModel none
Selecting sootModel none
Creating finite volume options from "system/fvOptions"

Selecting finite volume options type limitTemperature
    Source: limitT
    - selecting all cells
    - selected 1920 cell(s) with volume 0.14132
Selecting finite volume options type limitVelocity
    Source: limitU
    - selecting all cells
    - selected 1920 cell(s) with volume 0.14132

Starting time loop

wallHeatFlux wallHeatFlux:
    processing (2) wall patches:
        plate
        riser

Time = 1

DILUPBiCGStab:  Solving for Ux, Initial residual = 1, Final residual = 0.0011245, No Iterations 1
DILUPBiCGStab:  Solving for Uy, Initial residual = 1, Final residual = 0.0003458293, No Iterations 1
limitVelocity limitU Limited 1874 (97.6%) of cells, with max limit 8
DILUPBiCGStab:  Solving for h, Initial residual = 1, Final residual = 0.001239399, No Iterations 1
limitTemperature limitT Lower limited 0 (0%) of cells, with min limit 280
limitTemperature limitT Upper limited 0 (0%) of cells, with max limit 800
limitTemperature limitT Unlimited Tmin 500
limitTemperature limitT Unlimited Tmax 500
Selecting boundary radiation Model: lookup
Selecting boundary radiation Model: lookup
Selecting boundary radiation Model: lookup
Solving view factor equations for band : 0
GAMG:  Solving for p_rgh, Initial residual = 0.3913828, Final residual = 0.002725685, No Iterations 7
GAMG:  Solving for p_rgh, Initial residual = 0.01124461, Final residual = 7.699859e-05, No Iterations 7
limitVelocity limitU Limited 61 (3.18%) of cells, with max limit 8
time step continuity errors : sum local = 0.0005646615, global = -7.43887e-16, cumulative = -7.43887e-16
rho min/max : 0.5321926 0.8147836
ExecutionTime = 0.03 s  ClockTime = 0 s

    min/max/integ(plate) = 6259.018, 6341.053, 1264.561
    min/max/integ(riser) = -5104.802, -3753.046, -923.6324
Time = 2

DILUPBiCGStab:  Solving for Ux, Initial residual = 0.0305183, Final residual = 9.214002e-06, No Iterations 1
DILUPBiCGStab:  Solving for Uy, Initial residual = 0.1154735, Final residual = 0.0001402688, No Iterations 1
limitVelocity limitU Limited 1617 (84.22%) of cells, with max limit 8
DILUPBiCGStab:  Solving for h, Initial residual = 0.00612305, Final residual = 1.886032e-06, No Iterations 1
limitTemperature limitT Lower limited 0 (0%) of cells, with min limit 280
limitTemperature limitT Upper limited 0 (0%) of cells, with max limit 800
limitTemperature limitT Unlimited Tmin 495.2469
limitTemperature limitT Unlimited Tmax 511.6468
GAMG:  Solving for p_rgh, Initial residual = 0.9372908, Final residual = 0.006407157, No Iterations 7
GAMG:  Solving for p_rgh, Initial residual = 0.002438937, Final residual = 1.756841e-05, No Iterations 7
limitVelocity limitU Limited 0 (0%) of cells, with max limit 8
time step continuity errors : sum local = 0.000424351, global = 1.237344e-16, cumulative = -6.201525e-16
rho min/max : 0.5324882 0.8152728
ExecutionTime = 0.03 s  ClockTime = 0 s

    min/max/integ(plate) = 6259.106, 6340.909, 1264.543
    min/max/integ(riser) = -5104.741, -3753.169, -923.6238
Time = 3

DILUPBiCGStab:  Solving for Ux, Initial residual = 0.01777274, Final residual = 3.027496e-05, No Iterations 1
DILUPBiCGStab:  Solving for Uy, Initial residual = 0.137713, Final residual = 0.0002152962, No Iterations 1
limitVelocity limitU Limited 0 (0%) of cells, with max limit 8
DILUPBiCGStab:  Solving for h, Initial residual = 0.00262412, Final residual = 3.507493e-06, No Iterations 1
limitTemperature limitT Lower limited 0 (0%) of cells, with min limit 280
limitTemperature limitT Upper limited 0 (0%) of cells, with max limit 800
limitTemperature limitT Unlimited Tmin 495.3161
limitTemperature limitT Unlimited Tmax 511.568
GAMG:  Solving for p_rgh, Initial residual = 0.9167048, Final residual = 0.007771141, No Iterations 6
GAMG:  Solving for p_rgh, Initial residual = 0.003103988, Final residual = 2.413439e-05, No Iterations 6
limitVelocity limitU Limited 0 (0%) of cells, with max limit 8
time step continuity errors : sum local = 0.0005748757, global = -1.718041e-16, cumulative = -7.919566e-16
rho min/max : 0.5322454 0.8155854
ExecutionTime = 0.04 s  ClockTime = 0 s

    min/max/integ(plate) = 6261.645, 6340.888, 1264.553
    min/max/integ(riser) = -5104.733, -3754.19, -923.6279
Time = 4

DILUPBiCGStab:  Solving for Ux, Initial residual = 0.126723, Final residual = 0.0003484749, No Iterations 1
DILUPBiCGStab:  Solving for Uy, Initial residual = 0.2308058, Final residual = 0.0005995382, No Iterations 1
limitVelocity limitU Limited 14 (0.73%) of cells, with max limit 8
DILUPBiCGStab:  Solving for h, Initial residual = 0.002733184, Final residual = 1.962266e-06, No Iterations 1
limitTemperature limitT Lower limited 0 (0%) of cells, with min limit 280
limitTemperature limitT Upper limited 0 (0%) of cells, with max limit 800
limitTemperature limitT Unlimited Tmin 495.7494
limitTemperature limitT Unlimited Tmax 510.2095
GAMG:  Solving for p_rgh, Initial residual = 0.406528, Final residual = 0.002931469, No Iterations 4
GAMG:  Solving for p_rgh, Initial residual = 0.002360406, Final residual = 2.355993e-05, No Iterations 5
limitVelocity limitU Limited 13 (0.68%) of cells, with max limit 8
time step continuity errors : sum local = 0.00206879, global = 7.317137e-17, cumulative = -7.187853e-16
rho min/max : 0.5305582 0.8179122
ExecutionTime = 0.04 s  ClockTime = 0 s

    min/max/integ(plate) = 6262.106, 6340.87, 1264.563
    min/max/integ(riser) = -5104.726, -3752.255, -923.6281
Time = 5

DILUPBiCGStab:  Solving for Ux, Initial residual = 0.2107992, Final residual = 0.0007944299, No Iterations 1
DILUPBiCGStab:  Solving for Uy, Initial residual = 0.3242851, Final residual = 0.001058398, No Iterations 1
limitVelocity limitU Limited 92 (4.79%) of cells, with max limit 8
DILUPBiCGStab:  Solving for h, Initial residual = 0.004434336, Final residual = 8.068409e-06, No Iterations 1
limitTemperature limitT Lower limited 0 (0%) of cells, with min limit 280
limitTemperature limitT Upper limited 0 (0%) of cells, with max limit 800
limitTemperature limitT Unlimited Tmin 494.8023
limitTemperature limitT Unlimited Tmax 510.334
Solving view factor equations for band : 0
GAMG:  Solving for p_rgh, Initial residual = 0.6061184, Final residual = 0.004830322, No Iterations 3
GAMG:  Solving for p_rgh, Initial residual = 0.01111413, Final residual = 9.747705e-05, No Iterations 6
limitVelocity limitU Limited 41 (2.14%) of cells, with max limit 8
time step continuity errors : sum local = 0.002416484, global = -2.786841e-16, cumulative = -9.974694e-16
rho min/max : 0.5291649 0.820638
ExecutionTime = 0.05 s  ClockTime = 0 s

    min/max/integ(plate) = 6262.143, 6341.225, 1264.667
    min/max/integ(riser) = -5104.516, -3750.418, -923.542
Time = 6

DILUPBiCGStab:  Solving for Ux, Initial residual = 0.1806564, Final residual = 0.0005823266, No Iterations 1
DILUPBiCGStab:  Solving for Uy, Initial residual = 0.2675447, Final residual = 0.0008951522, No Iterations 1
limitVelocity limitU Limited 296 (15.42%) of cells, with max limit 8
DILUPBiCGStab:  Solving for h, Initial residual = 0.003832832, Final residual = 5.265939e-06, No Iterations 1
limitTemperature limitT Lower limited 0 (0%) of cells, with min limit 280
limitTemperature limitT Upper limited 0 (0%) of cells, with max limit 800
limitTemperature limitT Unlimited Tmin 495.1288
limitTemperature limitT Unlimited Tmax 509.5354
GAMG:  Solving for p_rgh, Initial residual = 0.6272424, Final residual = 0.003559651, No Iterations 4
GAMG:  Solving for p_rgh, Initial residual = 0.006941213, Final residual = 5.674152e-05, No Iterations 6
limitVelocity limitU Limited 114 (5.94%) of cells, with max limit 8
time step continuity errors : sum local = 0.002422024, global = -1.487402e-16, cumulative = -1.14621e-15
rho min/max : 0.5296733 0.8198803
ExecutionTime = 0.05 s  ClockTime = 0 s

    min/max/integ(plate) = 6262.743, 6341.238, 1264.689
    min/max/integ(riser) = -5104.506, -3750.942, -923.5508
Time = 7

DILUPBiCGStab:  Solving for Ux, Initial residual = 0.09404664, Final residual = 0.0002825784, No Iterations 1
DILUPBiCGStab:  Solving for Uy, Initial residual = 0.1168304, Final residual = 0.0003717971, No Iterations 1
limitVelocity limitU Limited 186 (9.69%) of cells, with max limit 8
DILUPBiCGStab:  Solving for h, Initial residual = 0.00387977, Final residual = 5.444103e-06, No Iterations 1
limitTemperature limitT Lower limited 0 (0%) of cells, with min limit 280
limitTemperature limitT Upper limited 0 (0%) of cells, with max limit 800
limitTemperature limitT Unlimited Tmin 495.4236
limitTemperature limitT Unlimited Tmax 509.2924
GAMG:  Solving for p_rgh, Initial residual = 0.6436113, Final residual = 0.00523204, No Iterations 4
GAMG:  Solving for p_rgh, Initial residual = 0.004479977, Final residual = 3.368458e-05, No Iterations 6
limitVelocity limitU Limited 0 (0%) of cells, with max limit 8
time step continuity errors : sum local = 0.002306297, global = 1.630293e-17, cumulative = -1.129907e-15
rho min/max : 0.5309441 0.8177566
ExecutionTime = 0.06 s  ClockTime = 0 s

    min/max/integ(plate) = 6263.273, 6341.252, 1264.712
    min/max/integ(riser) = -5104.497, -3751.407, -923.5603
Time = 8

DILUPBiCGStab:  Solving for Ux, Initial residual = 0.1145152, Final residual = 0.0003634704, No Iterations 1
DILUPBiCGStab:  Solving for Uy, Initial residual = 0.06599056, Final residual = 0.0001777547, No Iterations 1
limitVelocity limitU Limited 0 (0%) of cells, with max limit 8
DILUPBiCGStab:  Solving for h, Initial residual = 0.004357573, Final residual = 4.891797e-06, No Iterations 1
limitTemperature limitT Lower limited 0 (0%) of cells, with min limit 280
limitTemperature limitT Upper limited 0 (0%) of cells, with max limit 800
limitTemperature limitT Unlimited Tmin 495.685
limitTemperature limitT Unlimited Tmax 509.3223
GAMG:  Solving for p_rgh, Initial residual = 0.5703313, Final residual = 0.004101327, No Iterations 4
GAMG:  Solving for p_rgh, Initial residual = 0.00314661, Final residual = 1.789163e-05, No Iterations 6
limitVelocity limitU Limited 0 (0%) of cells, with max limit 8
time step continuity errors : sum local = 0.001224341, global = -7.345905e-17, cumulative = -1.203366e-15
rho min/max : 0.5318459 0.8161808
ExecutionTime = 0.06 s  ClockTime = 0 s

    min/max/integ(plate) = 6263.77, 6341.282, 1264.734
    min/max/integ(riser) = -5104.489, -3751.837, -923.5685
Time = 9

DILUPBiCGStab:  Solving for Ux, Initial residual = 0.1679257, Final residual = 0.000493698, No Iterations 1
DILUPBiCGStab:  Solving for Uy, Initial residual = 0.182455, Final residual = 0.0005032846, No Iterations 1
limitVelocity limitU Limited 8 (0.42%) of cells, with max limit 8
DILUPBiCGStab:  Solving for h, Initial residual = 0.004184704, Final residual = 6.492338e-06, No Iterations 1
limitTemperature limitT Lower limited 0 (0%) of cells, with min limit 280
limitTemperature limitT Upper limited 0 (0%) of cells, with max limit 800
limitTemperature limitT Unlimited Tmin 495.8069
limitTemperature limitT Unlimited Tmax 509.3488
GAMG:  Solving for p_rgh, Initial residual = 0.2091938, Final residual = 0.0009913086, No Iterations 3
GAMG:  Solving for p_rgh, Initial residual = 0.001285317, Final residual = 5.965655e-06, No Iterations 6
limitVelocity limitU Limited 5 (0.26%) of cells, with max limit 8
time step continuity errors : sum local = 0.0006942396, global = 8.304903e-17, cumulative = -1.120317e-15
rho min/max : 0.5301744 0.8188283
ExecutionTime = 0.06 s  ClockTime = 0 s

    min/max/integ(plate) = 6264.229, 6341.318, 1264.745
    min/max/integ(riser) = -5104.486, -3752.181, -923.5753
Time = 10

DILUPBiCGStab:  Solving for Ux, Initial residual = 0.149737, Final residual = 0.0004197786, No Iterations 1
DILUPBiCGStab:  Solving for Uy, Initial residual = 0.1863458, Final residual = 0.0005405492, No Iterations 1
limitVelocity limitU Limited 22 (1.15%) of cells, with max limit 8
DILUPBiCGStab:  Solving for h, Initial residual = 0.003670444, Final residual = 5.80986e-06, No Iterations 1
limitTemperature limitT Lower limited 0 (0%) of cells, with min limit 280
limitTemperature limitT Upper limited 0 (0%) of cells, with max limit 800
limitTemperature limitT Unlimited Tmin 495.8524
limitTemperature limitT Unlimited Tmax 509.3718
Solving view factor equations for band : 0
GAMG:  Solving for p_rgh, Initial residual = 0.4381691, Final residual = 0.003993997, No Iterations 3
GAMG:  Solving for p_rgh, Initial residual = 0.008769095, Final residual = 4.764939e-05, No Iterations 6
limitVelocity limitU Limited 8 (0.42%) of cells, with max limit 8
time step continuity errors : sum local = 0.001816608, global = 2.349539e-17, cumulative = -1.096821e-15
rho min/max : 0.5299669 0.8191712
ExecutionTime = 0.07 s  ClockTime = 0 s

    min/max/integ(plate) = 6259.121, 6341.485, 1264.769
    min/max/integ(riser) = -5104.54, -3753.563, -923.5302
Time = 11

DILUPBiCGStab:  Solving for Ux, Initial residual = 0.106705, Final residual = 0.0002722106, No Iterations 1
DILUPBiCGStab:  Solving for Uy, Initial residual = 0.1329087, Final residual = 0.0003530294, No Iterations 1
limitVelocity limitU Limited 34 (1.77%) of cells, with max limit 8
DILUPBiCGStab:  Solving for h, Initial residual = 0.003768084, Final residual = 5.761186e-06, No Iterations 1
limitTemperature limitT Lower limited 0 (0%) of cells, with min limit 280
limitTemperature limitT Upper limited 0 (0%) of cells, with max limit 800
limitTemperature limitT Unlimited Tmin 495.8972
limitTemperature limitT Unlimited Tmax 509.6764
GAMG:  Solving for p_rgh, Initial residual = 0.517702, Final residual = 0.002923843, No Iterations 4
GAMG:  Solving for p_rgh, Initial residual = 0.004278318, Final residual = 2.318776e-05, No Iterations 6
limitVelocity limitU Limited 3 (0.16%) of cells, with max limit 8
time step continuity errors : sum local = 0.001065159, global = 2.397489e-18, cumulative = -1.094424e-15
rho min/max : 0.5307392 0.8179629
ExecutionTime = 0.07 s  ClockTime = 0 s

    min/max/integ(plate) = 6260.447, 6341.549, 1264.778
    min/max/integ(riser) = -5104.547, -3754.047, -923.5348
Time = 12

DILUPBiCGStab:  Solving for Ux, Initial residual = 0.07420489, Final residual = 0.0001762309, No Iterations 1
DILUPBiCGStab:  Solving for Uy, Initial residual = 0.05435049, Final residual = 0.0001293271, No Iterations 1
limitVelocity limitU Limited 4 (0.21%) of cells, with max limit 8
DILUPBiCGStab:  Solving for h, Initial residual = 0.003870669, Final residual = 7.060542e-06, No Iterations 1
limitTemperature limitT Lower limited 0 (0%) of cells, with min limit 280
limitTemperature limitT Upper limited 0 (0%) of cells, with max limit 800
limitTemperature limitT Unlimited Tmin 495.9339
limitTemperature limitT Unlimited Tmax 509.4287
GAMG:  Solving for p_rgh, Initial residual = 0.5588988, Final residual = 0.003259377, No Iterations 4
GAMG:  Solving for p_rgh, Initial residual = 0.003225057, Final residual = 1.742623e-05, No Iterations 6
limitVelocity limitU Limited 0 (0%) of cells, with max limit 8
time step continuity errors : sum local = 0.0009263482, global = -5.111447e-17, cumulative = -1.145538e-15
rho min/max : 0.5318972 0.8162226
ExecutionTime = 0.08 s  ClockTime = 0 s

    min/max/integ(plate) = 6261.819, 6341.609, 1264.785
    min/max/integ(riser) = -5104.547, -3754.525, -923.5392
Time = 13

DILUPBiCGStab:  Solving for Ux, Initial residual = 0.07038058, Final residual = 0.0001727404, No Iterations 1
DILUPBiCGStab:  Solving for Uy, Initial residual = 0.04270699, Final residual = 0.0001223131, No Iterations 1
limitVelocity limitU Limited 0 (0%) of cells, with max limit 8
DILUPBiCGStab:  Solving for h, Initial residual = 0.003965962, Final residual = 7.920321e-06, No Iterations 1
limitTemperature limitT Lower limited 0 (0%) of cells, with min limit 280
limitTemperature limitT Upper limited 0 (0%) of cells, with max limit 800
limitTemperature limitT Unlimited Tmin 495.9638
limitTemperature limitT Unlimited Tmax 509.4566
GAMG:  Solving for p_rgh, Initial residual = 0.4519124, Final residual = 0.003966031, No Iterations 3
GAMG:  Solving for p_rgh, Initial residual = 0.003444682, Final residual = 1.762004e-05, No Iterations 6
limitVelocity limitU Limited 0 (0%) of cells, with max limit 8
time step continuity errors : sum local = 0.001082596, global = -8.85153e-17, cumulative = -1.234054e-15
rho min/max : 0.5320718 0.8159375
ExecutionTime = 0.08 s  ClockTime = 0 s

    min/max/integ(plate) = 6263.108, 6341.663, 1264.797
    min/max/integ(riser) = -5104.547, -3754.983, -923.5435
Time = 14

DILUPBiCGStab:  Solving for Ux, Initial residual = 0.0790097, Final residual = 0.0002077113, No Iterations 1
DILUPBiCGStab:  Solving for Uy, Initial residual = 0.08314261, Final residual = 0.0002458068, No Iterations 1
limitVelocity limitU Limited 0 (0%) of cells, with max limit 8
DILUPBiCGStab:  Solving for h, Initial residual = 0.003883388, Final residual = 7.911734e-06, No Iterations 1
limitTemperature limitT Lower limited 0 (0%) of cells, with min limit 280
limitTemperature limitT Upper limited 0 (0%) of cells, with max limit 800
limitTemperature limitT Unlimited Tmin 495.9872
limitTemperature limitT Unlimited Tmax 509.487
GAMG:  Solving for p_rgh, Initial residual = 0.3586699, Final residual = 0.001319955, No Iterations 3
GAMG:  Solving for p_rgh, Initial residual = 0.001606653, Final residual = 9.629135e-06, No Iterations 6
limitVelocity limitU Limited 0 (0%) of cells, with max limit 8
time step continuity errors : sum local = 0.0003214991, global = -6.003313e-17, cumulative = -1.294087e-15
rho min/max : 0.5314276 0.816911
ExecutionTime = 0.09 s  ClockTime = 0 s

    min/max/integ(plate) = 6264.316, 6341.716, 1264.813
    min/max/integ(riser) = -5104.549, -3755.419, -923.5478
Time = 15

DILUPBiCGStab:  Solving for Ux, Initial residual = 0.07794881, Final residual = 0.0002015941, No Iterations 1
DILUPBiCGStab:  Solving for Uy, Initial residual = 0.08868031, Final residual = 0.0002496577, No Iterations 1
limitVelocity limitU Limited 0 (0%) of cells, with max limit 8
DILUPBiCGStab:  Solving for h, Initial residual = 0.003855538, Final residual = 7.744447e-06, No Iterations 1
limitTemperature limitT Lower limited 0 (0%) of cells, with min limit 280
limitTemperature limitT Upper limited 0 (0%) of cells, with max limit 800
limitTemperature limitT Unlimited Tmin 496.0049
limitTemperature limitT Unlimited Tmax 509.517
Solving view factor equations for band : 0
GAMG:  Solving for p_rgh, Initial residual = 0.1923282, Final residual = 0.001733539, No Iterations 3
GAMG:  Solving for p_rgh, Initial residual = 0.005064103, Final residual = 2.36078e-05, No Iterations 6
limitVelocity limitU Limited 0 (0%) of cells, with max limit 8
time step continuity errors : sum local = 0.000760906, global = -1.090378e-16, cumulative = -1.403125e-15
rho min/max : 0.5313599 0.8170228
ExecutionTime = 0.09 s  ClockTime = 0 s

    min/max/integ(plate) = 6273.76, 6341.998, 1265.035
    min/max/integ(riser) = -5103.674, -3759.033, -923.3886
Time = 16

DILUPBiCGStab:  Solving for Ux, Initial residual = 0.06392731, Final residual = 0.000155704, No Iterations 1
DILUPBiCGStab:  Solving for Uy, Initial residual = 0.06212427, Final residual = 0.0001732144, No Iterations 1
limitVelocity limitU Limited 0 (0%) of cells, with max limit 8
DILUPBiCGStab:  Solving for h, Initial residual = 0.003811866, Final residual = 7.730677e-06, No Iterations 1
limitTemperature limitT Lower limited 0 (0%) of cells, with min limit 280
limitTemperature limitT Upper limited 0 (0%) of cells, with max limit 800
limitTemperature limitT Unlimited Tmin 496.0179
limitTemperature limitT Unlimited Tmax 509.5434
GAMG:  Solving for p_rgh, Initial residual = 0.3492522, Final residual = 0.00192575, No Iterations 4
GAMG:  Solving for p_rgh, Initial residual = 0.003203293, Final residual = 1.446372e-05, No Iterations 6
limitVelocity limitU Limited 0 (0%) of cells, with max limit 8
time step continuity errors : sum local = 0.0004230218, global = 2.366322e-17, cumulative = -1.379461e-15
rho min/max : 0.5317066 0.8165214
ExecutionTime = 0.09 s  ClockTime = 0 s

    min/max/integ(plate) = 6273.987, 6342.026, 1265.042
    min/max/integ(riser) = -5103.677, -3759.416, -923.393
Time = 17

DILUPBiCGStab:  Solving for Ux, Initial residual = 0.04945393, Final residual = 0.0001080316, No Iterations 1
DILUPBiCGStab:  Solving for Uy, Initial residual = 0.02522875, Final residual = 6.67502e-05, No Iterations 1
limitVelocity limitU Limited 1 (0.05%) of cells, with max limit 8
DILUPBiCGStab:  Solving for h, Initial residual = 0.003807929, Final residual = 7.87698e-06, No Iterations 1
limitTemperature limitT Lower limited 0 (0%) of cells, with min limit 280
limitTemperature limitT Upper limited 0 (0%) of cells, with max limit 800
limitTemperature limitT Unlimited Tmin 496.0269
limitTemperature limitT Unlimited Tmax 509.6041
GAMG:  Solving for p_rgh, Initial residual = 0.4762138, Final residual = 0.002533789, No Iterations 4
GAMG:  Solving for p_rgh, Initial residual = 0.002438631, Final residual = 1.212342e-05, No Iterations 6
limitVelocity limitU Limited 0 (0%) of cells, with max limit 8
time step continuity errors : sum local = 0.0003675061, global = -1.739858e-16, cumulative = -1.553447e-15
rho min/max : 0.5322174 0.8157768
ExecutionTime = 0.1 s  ClockTime = 0 s

    min/max/integ(plate) = 6274.399, 6342.08, 1265.05
    min/max/integ(riser) = -5103.678, -3759.569, -923.3974
Time = 18

DILUPBiCGStab:  Solving for Ux, Initial residual = 0.04113834, Final residual = 8.384158e-05, No Iterations 1
DILUPBiCGStab:  Solving for Uy, Initial residual = 0.0213018, Final residual = 5.029112e-05, No Iterations 1
limitVelocity limitU Limited 0 (0%) of cells, with max limit 8
DILUPBiCGStab:  Solving for h, Initial residual = 0.003811552, Final residual = 8.111012e-06, No Iterations 1
limitTemperature limitT Lower limited 0 (0%) of cells, with min limit 280
limitTemperature limitT Upper limited 0 (0%) of cells, with max limit 800
limitTemperature limitT Unlimited Tmin 496.033
limitTemperature limitT Unlimited Tmax 509.6798
GAMG:  Solving for p_rgh, Initial residual = 0.4605298, Final residual = 0.003763665, No Iterations 3
GAMG:  Solving for p_rgh, Initial residual = 0.003765349, Final residual = 2.217057e-05, No Iterations 6
limitVelocity limitU Limited 0 (0%) of cells, with max limit 8
time step continuity errors : sum local = 0.0005001088, global = 2.785882e-17, cumulative = -1.525588e-15
rho min/max : 0.5323993 0.8156113
ExecutionTime = 0.1 s  ClockTime = 0 s

    min/max/integ(plate) = 6274.676, 6342.137, 1265.059
    min/max/integ(riser) = -5103.677, -3759.676, -923.4017
Time = 19

DILUPBiCGStab:  Solving for Ux, Initial residual = 0.03939645, Final residual = 8.250929e-05, No Iterations 1
DILUPBiCGStab:  Solving for Uy, Initial residual = 0.03713805, Final residual = 9.347251e-05, No Iterations 1
limitVelocity limitU Limited 0 (0%) of cells, with max limit 8
DILUPBiCGStab:  Solving for h, Initial residual = 0.003862985, Final residual = 8.30708e-06, No Iterations 1
limitTemperature limitT Lower limited 0 (0%) of cells, with min limit 280
limitTemperature limitT Upper limited 0 (0%) of cells, with max limit 800
limitTemperature limitT Unlimited Tmin 496.0367
limitTemperature limitT Unlimited Tmax 509.9984
GAMG:  Solving for p_rgh, Initial residual = 0.3381642, Final residual = 0.001049247, No Iterations 3
GAMG:  Solving for p_rgh, Initial residual = 0.001354696, Final residual = 7.735608e-06, No Iterations 6
limitVelocity limitU Limited 0 (0%) of cells, with max limit 8
time step continuity errors : sum local = 0.0001259985, global = -8.043576e-17, cumulative = -1.606024e-15
rho min/max : 0.5321684 0.815961
ExecutionTime = 0.11 s  ClockTime = 0 s

    min/max/integ(plate) = 6274.732, 6342.195, 1265.067
    min/max/integ(riser) = -5103.674, -3759.791, -923.4061
Time = 20

DILUPBiCGStab:  Solving for Ux, Initial residual = 0.03663758, Final residual = 7.804068e-05, No Iterations 1
DILUPBiCGStab:  Solving for Uy, Initial residual = 0.03942774, Final residual = 9.675522e-05, No Iterations 1
limitVelocity limitU Limited 1 (0.05%) of cells, with max limit 8
DILUPBiCGStab:  Solving for h, Initial residual = 0.003885065, Final residual = 8.365103e-06, No Iterations 1
limitTemperature limitT Lower limited 0 (0%) of cells, with min limit 280
limitTemperature limitT Upper limited 0 (0%) of cells, with max limit 800
limitTemperature limitT Unlimited Tmin 496.0382
limitTemperature limitT Unlimited Tmax 510.2909
Solving view factor equations for band : 0
GAMG:  Solving for p_rgh, Initial residual = 0.3372906, Final residual = 0.002921899, No Iterations 3
GAMG:  Solving for p_rgh, Initial residual = 0.005629372, Final residual = 3.303044e-05, No Iterations 6
limitVelocity limitU Limited 0 (0%) of cells, with max limit 8
time step continuity errors : sum local = 0.0003511064, global = 4.747029e-17, cumulative = -1.558554e-15
rho min/max : 0.532142 0.8159694
ExecutionTime = 0.12 s  ClockTime = 0 s

    min/max/integ(plate) = 6280.434, 6342.296, 1265.074
    min/max/integ(riser) = -5103.697, -3762.117, -923.4083
Time = 21

DILUPBiCGStab:  Solving for Ux, Initial residual = 0.0319066, Final residual = 6.681606e-05, No Iterations 1
DILUPBiCGStab:  Solving for Uy, Initial residual = 0.02835669, Final residual = 6.640484e-05, No Iterations 1
limitVelocity limitU Limited 0 (0%) of cells, with max limit 8
DILUPBiCGStab:  Solving for h, Initial residual = 0.003916189, Final residual = 8.273279e-06, No Iterations 1
limitTemperature limitT Lower limited 0 (0%) of cells, with min limit 280
limitTemperature limitT Upper limited 0 (0%) of cells, with max limit 800
limitTemperature limitT Unlimited Tmin 496.0379
limitTemperature limitT Unlimited Tmax 510.489
GAMG:  Solving for p_rgh, Initial residual = 0.3874108, Final residual = 0.002080684, No Iterations 4
GAMG:  Solving for p_rgh, Initial residual = 0.002977885, Final residual = 1.793423e-05, No Iterations 6
limitVelocity limitU Limited 0 (0%) of cells, with max limit 8
time step continuity errors : sum local = 0.000203968, global = -5.248104e-17, cumulative = -1.611035e-15
rho min/max : 0.5322703 0.8157406
ExecutionTime = 0.12 s  ClockTime = 0 s

    min/max/integ(plate) = 6280.652, 6342.369, 1265.083
    min/max/integ(riser) = -5103.693, -3762.241, -923.4127
Time = 22

DILUPBiCGStab:  Solving for Ux, Initial residual = 0.02816169, Final residual = 5.985989e-05, No Iterations 1
DILUPBiCGStab:  Solving for Uy, Initial residual = 0.01436959, Final residual = 2.790559e-05, No Iterations 1
limitVelocity limitU Limited 0 (0%) of cells, with max limit 8
DILUPBiCGStab:  Solving for h, Initial residual = 0.003941674, Final residual = 7.916587e-06, No Iterations 1
limitTemperature limitT Lower limited 0 (0%) of cells, with min limit 280
limitTemperature limitT Upper limited 0 (0%) of cells, with max limit 800
limitTemperature limitT Unlimited Tmin 496.0358
limitTemperature limitT Unlimited Tmax 510.6184
GAMG:  Solving for p_rgh, Initial residual = 0.4236199, Final residual = 0.002313147, No Iterations 4
GAMG:  Solving for p_rgh, Initial residual = 0.002452906, Final residual = 1.706314e-05, No Iterations 6
limitVelocity limitU Limited 0 (0%) of cells, with max limit 8
time step continuity errors : sum local = 0.000189617, global = -2.25364e-17, cumulative = -1.633571e-15
rho min/max : 0.5324597 0.8154272
ExecutionTime = 0.13 s  ClockTime = 0 s

    min/max/integ(plate) = 6280.659, 6342.443, 1265.092
    min/max/integ(riser) = -5103.69, -3762.366, -923.4171
Time = 23

DILUPBiCGStab:  Solving for Ux, Initial residual = 0.02705094, Final residual = 5.971803e-05, No Iterations 1
DILUPBiCGStab:  Solving for Uy, Initial residual = 0.0126284, Final residual = 2.560708e-05, No Iterations 1
limitVelocity limitU Limited 0 (0%) of cells, with max limit 8
DILUPBiCGStab:  Solving for h, Initial residual = 0.003972423, Final residual = 7.572992e-06, No Iterations 1
limitTemperature limitT Lower limited 0 (0%) of cells, with min limit 280
limitTemperature limitT Upper limited 0 (0%) of cells, with max limit 800
limitTemperature limitT Unlimited Tmin 496.0323
limitTemperature limitT Unlimited Tmax 510.6735
GAMG:  Solving for p_rgh, Initial residual = 0.3687171, Final residual = 0.003000283, No Iterations 3
GAMG:  Solving for p_rgh, Initial residual = 0.003461458, Final residual = 2.734124e-05, No Iterations 6
limitVelocity limitU Limited 0 (0%) of cells, with max limit 8
time step continuity errors : sum local = 0.0002422617, global = 4.756619e-17, cumulative = -1.586005e-15
rho min/max : 0.5324436 0.8154659
ExecutionTime = 0.13 s  ClockTime = 0 s

    min/max/integ(plate) = 6280.694, 6342.517, 1265.101
    min/max/integ(riser) = -5103.692, -3762.492, -923.4215
Time = 24

DILUPBiCGStab:  Solving for Ux, Initial residual = 0.02672056, Final residual = 6.083265e-05, No Iterations 1
DILUPBiCGStab:  Solving for Uy, Initial residual = 0.01742573, Final residual = 4.503333e-05, No Iterations 1
limitVelocity limitU Limited 0 (0%) of cells, with max limit 8
DILUPBiCGStab:  Solving for h, Initial residual = 0.004034027, Final residual = 7.645374e-06, No Iterations 1
limitTemperature limitT Lower limited 0 (0%) of cells, with min limit 280
limitTemperature limitT Upper limited 0 (0%) of cells, with max limit 800
limitTemperature limitT Unlimited Tmin 496.0274
limitTemperature limitT Unlimited Tmax 510.6711
GAMG:  Solving for p_rgh, Initial residual = 0.3082707, Final residual = 0.0009883627, No Iterations 3
GAMG:  Solving for p_rgh, Initial residual = 0.001183788, Final residual = 8.142743e-06, No Iterations 6
limitVelocity limitU Limited 0 (0%) of cells, with max limit 8
time step continuity errors : sum local = 5.734523e-05, global = 3.541091e-17, cumulative = -1.550594e-15
rho min/max : 0.5323528 0.8156114
ExecutionTime = 0.13 s  ClockTime = 0 s

    min/max/integ(plate) = 6280.786, 6342.59, 1265.111
    min/max/integ(riser) = -5103.703, -3762.617, -923.4259
Time = 25

DILUPBiCGStab:  Solving for Ux, Initial residual = 0.02542103, Final residual = 5.693143e-05, No Iterations 1
DILUPBiCGStab:  Solving for Uy, Initial residual = 0.01787117, Final residual = 4.727453e-05, No Iterations 1
limitVelocity limitU Limited 0 (0%) of cells, with max limit 8
DILUPBiCGStab:  Solving for h, Initial residual = 0.004087055, Final residual = 7.805301e-06, No Iterations 1
limitTemperature limitT Lower limited 0 (0%) of cells, with min limit 280
limitTemperature limitT Upper limited 0 (0%) of cells, with max limit 800
limitTemperature limitT Unlimited Tmin 496.0216
limitTemperature limitT Unlimited Tmax 510.6522
Solving view factor equations for band : 0
GAMG:  Solving for p_rgh, Initial residual = 0.304984, Final residual = 0.002529455, No Iterations 3
GAMG:  Solving for p_rgh, Initial residual = 0.003749739, Final residual = 3.049401e-05, No Iterations 6
limitVelocity limitU Limited 0 (0%) of cells, with max limit 8
time step continuity errors : sum local = 0.0001762328, global = 8.449351e-17, cumulative = -1.466101e-15
rho min/max : 0.5323453 0.8156297
ExecutionTime = 0.14 s  ClockTime = 0 s

    min/max/integ(plate) = 6271.369, 6342.567, 1264.977
    min/max/integ(riser) = -5104.34, -3764.271, -923.5393
Time = 26

DILUPBiCGStab:  Solving for Ux, Initial residual = 0.02298464, Final residual = 4.910264e-05, No Iterations 1
DILUPBiCGStab:  Solving for Uy, Initial residual = 0.01395071, Final residual = 3.42978e-05, No Iterations 1
limitVelocity limitU Limited 0 (0%) of cells, with max limit 8
DILUPBiCGStab:  Solving for h, Initial residual = 0.004114724, Final residual = 7.940154e-06, No Iterations 1
limitTemperature limitT Lower limited 0 (0%) of cells, with min limit 280
limitTemperature limitT Upper limited 0 (0%) of cells, with max limit 800
limitTemperature limitT Unlimited Tmin 496.0152
limitTemperature limitT Unlimited Tmax 510.625
GAMG:  Solving for p_rgh, Initial residual = 0.3194764, Final residual = 0.001596258, No Iterations 4
GAMG:  Solving for p_rgh, Initial residual = 0.002238509, Final residual = 1.933524e-05, No Iterations 6
limitVelocity limitU Limited 0 (0%) of cells, with max limit 8
time step continuity errors : sum local = 0.00010585, global = -1.952515e-16, cumulative = -1.661352e-15
rho min/max : 0.5323986 0.8155559
ExecutionTime = 0.14 s  ClockTime = 0 s

    min/max/integ(plate) = 6271.423, 6342.638, 1264.987
    min/max/integ(riser) = -5104.356, -3764.392, -923.5437
Time = 27

DILUPBiCGStab:  Solving for Ux, Initial residual = 0.02069644, Final residual = 4.302703e-05, No Iterations 1
DILUPBiCGStab:  Solving for Uy, Initial residual = 0.01002526, Final residual = 1.954282e-05, No Iterations 1
limitVelocity limitU Limited 0 (0%) of cells, with max limit 8
DILUPBiCGStab:  Solving for h, Initial residual = 0.004143489, Final residual = 8.091862e-06, No Iterations 1
limitTemperature limitT Lower limited 0 (0%) of cells, with min limit 280
limitTemperature limitT Upper limited 0 (0%) of cells, with max limit 800
limitTemperature limitT Unlimited Tmin 496.0083
limitTemperature limitT Unlimited Tmax 510.5951
GAMG:  Solving for p_rgh, Initial residual = 0.313777, Final residual = 0.001514639, No Iterations 4
GAMG:  Solving for p_rgh, Initial residual = 0.001925444, Final residual = 1.74904e-05, No Iterations 6
limitVelocity limitU Limited 0 (0%) of cells, with max limit 8
time step continuity errors : sum local = 9.246234e-05, global = -1.371364e-17, cumulative = -1.675066e-15
rho min/max : 0.5324759 0.815445
ExecutionTime = 0.15 s  ClockTime = 0 s

    min/max/integ(plate) = 6271.477, 6342.707, 1264.996
    min/max/integ(riser) = -5104.374, -3764.511, -923.5481
Time = 28

DILUPBiCGStab:  Solving for Ux, Initial residual = 0.01922229, Final residual = 3.997163e-05, No Iterations 1
DILUPBiCGStab:  Solving for Uy, Initial residual = 0.009593985, Final residual = 1.933514e-05, No Iterations 1
limitVelocity limitU Limited 0 (0%) of cells, with max limit 8
DILUPBiCGStab:  Solving for h, Initial residual = 0.004171676, Final residual = 8.249227e-06, No Iterations 1
limitTemperature limitT Lower limited 0 (0%) of cells, with min limit 280
limitTemperature limitT Upper limited 0 (0%) of cells, with max limit 800
limitTemperature limitT Unlimited Tmin 496.0014
limitTemperature limitT Unlimited Tmax 510.5647
GAMG:  Solving for p_rgh, Initial residual = 0.285999, Final residual = 0.002024224, No Iterations 3
GAMG:  Solving for p_rgh, Initial residual = 0.002528194, Final residual = 2.446159e-05, No Iterations 6
limitVelocity limitU Limited 0 (0%) of cells, with max limit 8
time step continuity errors : sum local = 0.0001174697, global = -1.801953e-16, cumulative = -1.855261e-15
rho min/max : 0.5325106 0.8153521
ExecutionTime = 0.15 s  ClockTime = 0 s

    min/max/integ(plate) = 6271.529, 6342.774, 1265.006
    min/max/integ(riser) = -5104.393, -3764.627, -923.5524
Time = 29

DILUPBiCGStab:  Solving for Ux, Initial residual = 0.01818169, Final residual = 3.829752e-05, No Iterations 1
DILUPBiCGStab:  Solving for Uy, Initial residual = 0.01080364, Final residual = 2.410764e-05, No Iterations 1
limitVelocity limitU Limited 0 (0%) of cells, with max limit 8
DILUPBiCGStab:  Solving for h, Initial residual = 0.004203899, Final residual = 8.351802e-06, No Iterations 1
limitTemperature limitT Lower limited 0 (0%) of cells, with min limit 280
limitTemperature limitT Upper limited 0 (0%) of cells, with max limit 800
limitTemperature limitT Unlimited Tmin 495.9944
limitTemperature limitT Unlimited Tmax 510.5354
GAMG:  Solving for p_rgh, Initial residual = 0.2522657, Final residual = 0.002269391, No Iterations 2
GAMG:  Solving for p_rgh, Initial residual = 0.002594577, Final residual = 1.282771e-05, No Iterations 6
limitVelocity limitU Limited 0 (0%) of cells, with max limit 8
time step continuity errors : sum local = 5.533182e-05, global = 2.036667e-16, cumulative = -1.651594e-15
rho min/max : 0.5325029 0.8154072
ExecutionTime = 0.15 s  ClockTime = 0 s

    min/max/integ(plate) = 6271.577, 6342.839, 1265.015
    min/max/integ(riser) = -5104.413, -3764.74, -923.5568
Time = 30

DILUPBiCGStab:  Solving for Ux, Initial residual = 0.01724609, Final residual = 3.667342e-05, No Iterations 1
DILUPBiCGStab:  Solving for Uy, Initial residual = 0.01087377, Final residual = 2.454532e-05, No Iterations 1
limitVelocity limitU Limited 0 (0%) of cells, with max limit 8
DILUPBiCGStab:  Solving for h, Initial residual = 0.004243822, Final residual = 8.446752e-06, No Iterations 1
limitTemperature limitT Lower limited 0 (0%) of cells, with min limit 280
limitTemperature limitT Upper limited 0 (0%) of cells, with max limit 800
limitTemperature limitT Unlimited Tmin 495.9875
limitTemperature limitT Unlimited Tmax 510.5082
Solving view factor equations for band : 0
GAMG:  Solving for p_rgh, Initial residual = 0.239453, Final residual = 0.001530462, No Iterations 3
GAMG:  Solving for p_rgh, Initial residual = 0.002053403, Final residual = 2.034364e-05, No Iterations 6
limitVelocity limitU Limited 0 (0%) of cells, with max limit 8
time step continuity errors : sum local = 8.097664e-05, global = -7.647991e-18, cumulative = -1.659242e-15
rho min/max : 0.5325005 0.8154103
ExecutionTime = 0.16 s  ClockTime = 0 s

    min/max/integ(plate) = 6262.258, 6342.775, 1264.85
    min/max/integ(riser) = -5105.196, -3765.874, -923.6941
Time = 31

DILUPBiCGStab:  Solving for Ux, Initial residual = 0.01644831, Final residual = 3.540661e-05, No Iterations 1
DILUPBiCGStab:  Solving for Uy, Initial residual = 0.009723819, Final residual = 2.115039e-05, No Iterations 1
limitVelocity limitU Limited 0 (0%) of cells, with max limit 8
DILUPBiCGStab:  Solving for h, Initial residual = 0.004291913, Final residual = 8.493133e-06, No Iterations 1
limitTemperature limitT Lower limited 0 (0%) of cells, with min limit 280
limitTemperature limitT Upper limited 0 (0%) of cells, with max limit 800
limitTemperature limitT Unlimited Tmin 495.9807
limitTemperature limitT Unlimited Tmax 510.4834
GAMG:  Solving for p_rgh, Initial residual = 0.2329722, Final residual = 0.001999453, No Iterations 3
GAMG:  Solving for p_rgh, Initial residual = 0.00259464, Final residual = 1.275109e-05, No Iterations 7
limitVelocity limitU Limited 0 (0%) of cells, with max limit 8
time step continuity errors : sum local = 4.934771e-05, global = -6.161547e-17, cumulative = -1.720858e-15
rho min/max : 0.5325146 0.815377
ExecutionTime = 0.16 s  ClockTime = 0 s

    min/max/integ(plate) = 6262.297, 6342.836, 1264.859
    min/max/integ(riser) = -5105.217, -3765.98, -923.6984
Time = 32

DILUPBiCGStab:  Solving for Ux, Initial residual = 0.01588159, Final residual = 3.477873e-05, No Iterations 1
DILUPBiCGStab:  Solving for Uy, Initial residual = 0.008721099, Final residual = 1.822667e-05, No Iterations 1
limitVelocity limitU Limited 0 (0%) of cells, with max limit 8
DILUPBiCGStab:  Solving for h, Initial residual = 0.004339162, Final residual = 8.480514e-06, No Iterations 1
limitTemperature limitT Lower limited 0 (0%) of cells, with min limit 280
limitTemperature limitT Upper limited 0 (0%) of cells, with max limit 800
limitTemperature limitT Unlimited Tmin 495.9742
limitTemperature limitT Unlimited Tmax 510.4613
GAMG:  Solving for p_rgh, Initial residual = 0.2209006, Final residual = 0.001791817, No Iterations 3
GAMG:  Solving for p_rgh, Initial residual = 0.002232942, Final residual = 1.115825e-05, No Iterations 7
limitVelocity limitU Limited 0 (0%) of cells, with max limit 8
time step continuity errors : sum local = 4.206298e-05, global = 1.150795e-17, cumulative = -1.70935e-15
rho min/max : 0.5325211 0.8153646
ExecutionTime = 0.17 s  ClockTime = 0 s

    min/max/integ(plate) = 6262.332, 6342.894, 1264.869
    min/max/integ(riser) = -5105.238, -3766.082, -923.7027
Time = 33

DILUPBiCGStab:  Solving for Ux, Initial residual = 0.01551248, Final residual = 3.460624e-05, No Iterations 1
DILUPBiCGStab:  Solving for Uy, Initial residual = 0.008544558, Final residual = 1.846439e-05, No Iterations 1
limitVelocity limitU Limited 0 (0%) of cells, with max limit 8
DILUPBiCGStab:  Solving for h, Initial residual = 0.004383122, Final residual = 8.482711e-06, No Iterations 1
limitTemperature limitT Lower limited 0 (0%) of cells, with min limit 280
limitTemperature limitT Upper limited 0 (0%) of cells, with max limit 800
limitTemperature limitT Unlimited Tmin 495.9681
limitTemperature limitT Unlimited Tmax 510.4417
GAMG:  Solving for p_rgh, Initial residual = 0.2031072, Final residual = 0.001100227, No Iterations 3
GAMG:  Solving for p_rgh, Initial residual = 0.001376103, Final residual = 6.942514e-06, No Iterations 7
limitVelocity limitU Limited 0 (0%) of cells, with max limit 8
time step continuity errors : sum local = 2.506782e-05, global = -2.191305e-17, cumulative = -1.731263e-15
rho min/max : 0.5325086 0.8154057
ExecutionTime = 0.17 s  ClockTime = 0 s

    min/max/integ(plate) = 6262.362, 6342.973, 1264.878
    min/max/integ(riser) = -5105.258, -3766.181, -923.707
Time = 34

DILUPBiCGStab:  Solving for Ux, Initial residual = 0.01517033, Final residual = 3.428131e-05, No Iterations 1
DILUPBiCGStab:  Solving for Uy, Initial residual = 0.008707541, Final residual = 1.968755e-05, No Iterations 1
limitVelocity limitU Limited 0 (0%) of cells, with max limit 8
DILUPBiCGStab:  Solving for h, Initial residual = 0.004422241, Final residual = 8.509559e-06, No Iterations 1
limitTemperature limitT Lower limited 0 (0%) of cells, with min limit 280
limitTemperature limitT Upper limited 0 (0%) of cells, with max limit 800
limitTemperature limitT Unlimited Tmin 495.9623
limitTemperature limitT Unlimited Tmax 510.4248
GAMG:  Solving for p_rgh, Initial residual = 0.1930032, Final residual = 0.0008910332, No Iterations 2
GAMG:  Solving for p_rgh, Initial residual = 0.001038854, Final residual = 7.935027e-06, No Iterations 6
limitVelocity limitU Limited 0 (0%) of cells, with max limit 8
time step continuity errors : sum local = 2.693685e-05, global = 2.476487e-16, cumulative = -1.483614e-15
rho min/max : 0.532496 0.8154304
ExecutionTime = 0.17 s  ClockTime = 0 s

    min/max/integ(plate) = 6262.388, 6343.057, 1264.888
    min/max/integ(riser) = -5105.279, -3766.277, -923.7112
Time = 35

DILUPBiCGStab:  Solving for Ux, Initial residual = 0.01474838, Final residual = 3.330908e-05, No Iterations 1
DILUPBiCGStab:  Solving for Uy, Initial residual = 0.008660506, Final residual = 1.983619e-05, No Iterations 1
limitVelocity limitU Limited 0 (0%) of cells, with max limit 8
DILUPBiCGStab:  Solving for h, Initial residual = 0.00444863, Final residual = 8.550025e-06, No Iterations 1
limitTemperature limitT Lower limited 0 (0%) of cells, with min limit 280
limitTemperature limitT Upper limited 0 (0%) of cells, with max limit 800
limitTemperature limitT Unlimited Tmin 495.957
limitTemperature limitT Unlimited Tmax 510.4104
Solving view factor equations for band : 0
GAMG:  Solving for p_rgh, Initial residual = 0.193191, Final residual = 0.0008081077, No Iterations 3
GAMG:  Solving for p_rgh, Initial residual = 0.00102716, Final residual = 9.897347e-06, No Iterations 6
limitVelocity limitU Limited 0 (0%) of cells, with max limit 8
time step continuity errors : sum local = 3.224341e-05, global = -1.456714e-16, cumulative = -1.629286e-15
rho min/max : 0.5324952 0.8154363
ExecutionTime = 0.18 s  ClockTime = 0 s

    min/max/integ(plate) = 6253.872, 6342.971, 1264.695
    min/max/integ(riser) = -5106.185, -3767.109, -923.8701
Time = 36

DILUPBiCGStab:  Solving for Ux, Initial residual = 0.01427583, Final residual = 3.222932e-05, No Iterations 1
DILUPBiCGStab:  Solving for Uy, Initial residual = 0.00838559, Final residual = 1.891916e-05, No Iterations 1
limitVelocity limitU Limited 0 (0%) of cells, with max limit 8
DILUPBiCGStab:  Solving for h, Initial residual = 0.004480726, Final residual = 8.622336e-06, No Iterations 1
limitTemperature limitT Lower limited 0 (0%) of cells, with min limit 280
limitTemperature limitT Upper limited 0 (0%) of cells, with max limit 800
limitTemperature limitT Unlimited Tmin 495.9521
limitTemperature limitT Unlimited Tmax 510.3986
GAMG:  Solving for p_rgh, Initial residual = 0.1952514, Final residual = 0.0009773422, No Iterations 3
GAMG:  Solving for p_rgh, Initial residual = 0.001269533, Final residual = 6.549296e-06, No Iterations 7
limitVelocity limitU Limited 0 (0%) of cells, with max limit 8
time step continuity errors : sum local = 2.033303e-05, global = 1.933455e-16, cumulative = -1.43594e-15
rho min/max : 0.5325032 0.8154281
ExecutionTime = 0.18 s  ClockTime = 0 s

    min/max/integ(plate) = 6253.889, 6343.051, 1264.705
    min/max/integ(riser) = -5106.206, -3767.197, -923.8742
Time = 37

DILUPBiCGStab:  Solving for Ux, Initial residual = 0.0138306, Final residual = 3.14621e-05, No Iterations 1
DILUPBiCGStab:  Solving for Uy, Initial residual = 0.008119691, Final residual = 1.812853e-05, No Iterations 1
limitVelocity limitU Limited 0 (0%) of cells, with max limit 8
DILUPBiCGStab:  Solving for h, Initial residual = 0.004516254, Final residual = 8.74549e-06, No Iterations 1
limitTemperature limitT Lower limited 0 (0%) of cells, with min limit 280
limitTemperature limitT Upper limited 0 (0%) of cells, with max limit 800
limitTemperature limitT Unlimited Tmin 495.9478
limitTemperature limitT Unlimited Tmax 510.3893
GAMG:  Solving for p_rgh, Initial residual = 0.1943823, Final residual = 0.0008631422, No Iterations 3
GAMG:  Solving for p_rgh, Initial residual = 0.001117967, Final residual = 5.956721e-06, No Iterations 7
limitVelocity limitU Limited 0 (0%) of cells, with max limit 8
time step continuity errors : sum local = 1.775644e-05, global = -3.741282e-17, cumulative = -1.473353e-15
rho min/max : 0.5325145 0.8154139
ExecutionTime = 0.19 s  ClockTime = 0 s

    min/max/integ(plate) = 6253.901, 6343.129, 1264.714
    min/max/integ(riser) = -5106.226, -3767.281, -923.8783
Time = 38

DILUPBiCGStab:  Solving for Ux, Initial residual = 0.01347566, Final residual = 3.063279e-05, No Iterations 1
DILUPBiCGStab:  Solving for Uy, Initial residual = 0.00797295, Final residual = 1.784358e-05, No Iterations 1
limitVelocity limitU Limited 0 (0%) of cells, with max limit 8
DILUPBiCGStab:  Solving for h, Initial residual = 0.004566244, Final residual = 8.83894e-06, No Iterations 1
limitTemperature limitT Lower limited 0 (0%) of cells, with min limit 280
limitTemperature limitT Upper limited 0 (0%) of cells, with max limit 800
limitTemperature limitT Unlimited Tmin 495.9438
limitTemperature limitT Unlimited Tmax 510.3823
GAMG:  Solving for p_rgh, Initial residual = 0.1970982, Final residual = 0.001492085, No Iterations 2
GAMG:  Solving for p_rgh, Initial residual = 0.001793676, Final residual = 1.59265e-05, No Iterations 6
limitVelocity limitU Limited 0 (0%) of cells, with max limit 8
time step continuity errors : sum local = 4.575011e-05, global = -2.646828e-17, cumulative = -1.499821e-15
rho min/max : 0.5325211 0.8154013
ExecutionTime = 0.19 s  ClockTime = 0 s

    min/max/integ(plate) = 6253.91, 6343.205, 1264.724
    min/max/integ(riser) = -5106.246, -3767.362, -923.8824
Time = 39

DILUPBiCGStab:  Solving for Ux, Initial residual = 0.01318792, Final residual = 2.9867e-05, No Iterations 1
DILUPBiCGStab:  Solving for Uy, Initial residual = 0.007898737, Final residual = 1.778813e-05, No Iterations 1
limitVelocity limitU Limited 0 (0%) of cells, with max limit 8
DILUPBiCGStab:  Solving for h, Initial residual = 0.004602099, Final residual = 8.888762e-06, No Iterations 1
limitTemperature limitT Lower limited 0 (0%) of cells, with min limit 280
limitTemperature limitT Upper limited 0 (0%) of cells, with max limit 800
limitTemperature limitT Unlimited Tmin 495.9403
limitTemperature limitT Unlimited Tmax 510.3776
GAMG:  Solving for p_rgh, Initial residual = 0.2083048, Final residual = 0.001170727, No Iterations 2
GAMG:  Solving for p_rgh, Initial residual = 0.001276894, Final residual = 8.493241e-06, No Iterations 5
limitVelocity limitU Limited 0 (0%) of cells, with max limit 8
time step continuity errors : sum local = 1.986153e-05, global = 1.431301e-17, cumulative = -1.485508e-15
rho min/max : 0.5325244 0.815395
ExecutionTime = 0.19 s  ClockTime = 0 s

    min/max/integ(plate) = 6253.914, 6343.278, 1264.733
    min/max/integ(riser) = -5106.266, -3767.438, -923.8864
Time = 40

DILUPBiCGStab:  Solving for Ux, Initial residual = 0.01292435, Final residual = 2.920628e-05, No Iterations 1
DILUPBiCGStab:  Solving for Uy, Initial residual = 0.00779118, Final residual = 1.762244e-05, No Iterations 1
limitVelocity limitU Limited 0 (0%) of cells, with max limit 8
DILUPBiCGStab:  Solving for h, Initial residual = 0.004625091, Final residual = 8.901844e-06, No Iterations 1
limitTemperature limitT Lower limited 0 (0%) of cells, with min limit 280
limitTemperature limitT Upper limited 0 (0%) of cells, with max limit 800
limitTemperature limitT Unlimited Tmin 495.9373
limitTemperature limitT Unlimited Tmax 510.3751
Solving view factor equations for band : 0
GAMG:  Solving for p_rgh, Initial residual = 0.2035795, Final residual = 0.001477168, No Iterations 2
GAMG:  Solving for p_rgh, Initial residual = 0.001749247, Final residual = 1.315573e-05, No Iterations 6
limitVelocity limitU Limited 0 (0%) of cells, with max limit 8
time step continuity errors : sum local = 3.539152e-05, global = 1.546021e-16, cumulative = -1.330906e-15
rho min/max : 0.5325258 0.8153958
ExecutionTime = 0.2 s  ClockTime = 0 s

    min/max/integ(plate) = 6247.254, 6343.159, 1264.539
    min/max/integ(riser) = -5107.196, -3768.073, -924.0473
Time = 41

DILUPBiCGStab:  Solving for Ux, Initial residual = 0.01269111, Final residual = 2.850623e-05, No Iterations 1
DILUPBiCGStab:  Solving for Uy, Initial residual = 0.007662007, Final residual = 1.744258e-05, No Iterations 1
limitVelocity limitU Limited 0 (0%) of cells, with max limit 8
DILUPBiCGStab:  Solving for h, Initial residual = 0.004655335, Final residual = 8.885217e-06, No Iterations 1
limitTemperature limitT Lower limited 0 (0%) of cells, with min limit 280
limitTemperature limitT Upper limited 0 (0%) of cells, with max limit 800
limitTemperature limitT Unlimited Tmin 495.9346
limitTemperature limitT Unlimited Tmax 510.3745
GAMG:  Solving for p_rgh, Initial residual = 0.2071561, Final residual = 0.001647414, No Iterations 2
GAMG:  Solving for p_rgh, Initial residual = 0.001993037, Final residual = 1.779992e-05, No Iterations 6
limitVelocity limitU Limited 0 (0%) of cells, with max limit 8
time step continuity errors : sum local = 4.648545e-05, global = -1.608715e-17, cumulative = -1.346993e-15
rho min/max : 0.532526 0.815402
ExecutionTime = 0.2 s  ClockTime = 0 s

    min/max/integ(plate) = 6247.251, 6343.226, 1264.549
    min/max/integ(riser) = -5107.216, -3768.142, -924.0512
Time = 42

DILUPBiCGStab:  Solving for Ux, Initial residual = 0.01248495, Final residual = 2.781501e-05, No Iterations 1
DILUPBiCGStab:  Solving for Uy, Initial residual = 0.007545934, Final residual = 1.735975e-05, No Iterations 1
limitVelocity limitU Limited 0 (0%) of cells, with max limit 8
DILUPBiCGStab:  Solving for h, Initial residual = 0.00468838, Final residual = 8.822128e-06, No Iterations 1
limitTemperature limitT Lower limited 0 (0%) of cells, with min limit 280
limitTemperature limitT Upper limited 0 (0%) of cells, with max limit 800
limitTemperature limitT Unlimited Tmin 495.9324
limitTemperature limitT Unlimited Tmax 510.3758
GAMG:  Solving for p_rgh, Initial residual = 0.2106409, Final residual = 0.001451249, No Iterations 2
GAMG:  Solving for p_rgh, Initial residual = 0.001760062, Final residual = 1.592889e-05, No Iterations 6
limitVelocity limitU Limited 0 (0%) of cells, with max limit 8
time step continuity errors : sum local = 4.038028e-05, global = -3.273771e-17, cumulative = -1.379731e-15
rho min/max : 0.5325246 0.8154105
ExecutionTime = 0.21 s  ClockTime = 0 s

    min/max/integ(plate) = 6247.246, 6343.29, 1264.558
    min/max/integ(riser) = -5107.236, -3768.207, -924.0551
Time = 43

DILUPBiCGStab:  Solving for Ux, Initial residual = 0.01230176, Final residual = 2.721017e-05, No Iterations 1
DILUPBiCGStab:  Solving for Uy, Initial residual = 0.007445758, Final residual = 1.728662e-05, No Iterations 1
limitVelocity limitU Limited 0 (0%) of cells, with max limit 8
DILUPBiCGStab:  Solving for h, Initial residual = 0.004727702, Final residual = 8.790054e-06, No Iterations 1
limitTemperature limitT Lower limited 0 (0%) of cells, with min limit 280
limitTemperature limitT Upper limited 0 (0%) of cells, with max limit 800
limitTemperature limitT Unlimited Tmin 495.9306
limitTemperature limitT Unlimited Tmax 510.3789
GAMG:  Solving for p_rgh, Initial residual = 0.2113459, Final residual = 0.0009823594, No Iterations 2
GAMG:  Solving for p_rgh, Initial residual = 0.001175234, Final residual = 9.819132e-06, No Iterations 6
limitVelocity limitU Limited 0 (0%) of cells, with max limit 8
time step continuity errors : sum local = 2.392697e-05, global = 6.830447e-17, cumulative = -1.311427e-15
rho min/max : 0.5325219 0.8154184
ExecutionTime = 0.21 s  ClockTime = 0 s

    min/max/integ(plate) = 6247.237, 6343.351, 1264.568
    min/max/integ(riser) = -5107.256, -3768.269, -924.0589
Time = 44

DILUPBiCGStab:  Solving for Ux, Initial residual = 0.01211681, Final residual = 2.686619e-05, No Iterations 1
DILUPBiCGStab:  Solving for Uy, Initial residual = 0.007352866, Final residual = 1.717651e-05, No Iterations 1
limitVelocity limitU Limited 0 (0%) of cells, with max limit 8
DILUPBiCGStab:  Solving for h, Initial residual = 0.0047586, Final residual = 8.765328e-06, No Iterations 1
limitTemperature limitT Lower limited 0 (0%) of cells, with min limit 280
limitTemperature limitT Upper limited 0 (0%) of cells, with max limit 800
limitTemperature limitT Unlimited Tmin 495.9291
limitTemperature limitT Unlimited Tmax 510.3837
GAMG:  Solving for p_rgh, Initial residual = 0.2084386, Final residual = 0.0008780591, No Iterations 2
GAMG:  Solving for p_rgh, Initial residual = 0.0009960747, Final residual = 7.102681e-06, No Iterations 5
limitVelocity limitU Limited 0 (0%) of cells, with max limit 8
time step continuity errors : sum local = 1.68397e-05, global = -3.237809e-17, cumulative = -1.343805e-15
rho min/max : 0.5325209 0.8154239
ExecutionTime = 0.21 s  ClockTime = 0 s

    min/max/integ(plate) = 6247.226, 6343.408, 1264.577
    min/max/integ(riser) = -5107.276, -3768.327, -924.0627
Time = 45

DILUPBiCGStab:  Solving for Ux, Initial residual = 0.0119179, Final residual = 2.635404e-05, No Iterations 1
DILUPBiCGStab:  Solving for Uy, Initial residual = 0.007243485, Final residual = 1.692466e-05, No Iterations 1
limitVelocity limitU Limited 0 (0%) of cells, with max limit 8
DILUPBiCGStab:  Solving for h, Initial residual = 0.004787443, Final residual = 8.697702e-06, No Iterations 1
limitTemperature limitT Lower limited 0 (0%) of cells, with min limit 280
limitTemperature limitT Upper limited 0 (0%) of cells, with max limit 800
limitTemperature limitT Unlimited Tmin 495.9281
limitTemperature limitT Unlimited Tmax 510.3901
Solving view factor equations for band : 0
GAMG:  Solving for p_rgh, Initial residual = 0.2058667, Final residual = 0.001225115, No Iterations 2
GAMG:  Solving for p_rgh, Initial residual = 0.001304546, Final residual = 6.286432e-06, No Iterations 6
limitVelocity limitU Limited 0 (0%) of cells, with max limit 8
time step continuity errors : sum local = 1.439153e-05, global = 2.854211e-17, cumulative = -1.315263e-15
rho min/max : 0.5325217 0.8154266
ExecutionTime = 0.22 s  ClockTime = 0 s

    min/max/integ(plate) = 6241.752, 6343.246, 1264.374
    min/max/integ(riser) = -5108.256, -3768.858, -924.2314
Time = 46

DILUPBiCGStab:  Solving for Ux, Initial residual = 0.01173267, Final residual = 2.595396e-05, No Iterations 1
DILUPBiCGStab:  Solving for Uy, Initial residual = 0.007114642, Final residual = 1.659454e-05, No Iterations 1
limitVelocity limitU Limited 0 (0%) of cells, with max limit 8
DILUPBiCGStab:  Solving for h, Initial residual = 0.004821674, Final residual = 8.666572e-06, No Iterations 1
limitTemperature limitT Lower limited 0 (0%) of cells, with min limit 280
limitTemperature limitT Upper limited 0 (0%) of cells, with max limit 800
limitTemperature limitT Unlimited Tmin 495.9274
limitTemperature limitT Unlimited Tmax 510.398
GAMG:  Solving for p_rgh, Initial residual = 0.199157, Final residual = 0.001303032, No Iterations 2
GAMG:  Solving for p_rgh, Initial residual = 0.001425388, Final residual = 8.719386e-06, No Iterations 6
limitVelocity limitU Limited 0 (0%) of cells, with max limit 8
time step continuity errors : sum local = 1.950825e-05, global = -4.705073e-19, cumulative = -1.315733e-15
rho min/max : 0.5325239 0.8154271
ExecutionTime = 0.22 s  ClockTime = 0 s

    min/max/integ(plate) = 6241.735, 6343.296, 1264.383
    min/max/integ(riser) = -5108.276, -3768.91, -924.2351
Time = 47

DILUPBiCGStab:  Solving for Ux, Initial residual = 0.01154943, Final residual = 2.56764e-05, No Iterations 1
DILUPBiCGStab:  Solving for Uy, Initial residual = 0.006993064, Final residual = 1.62413e-05, No Iterations 1
limitVelocity limitU Limited 0 (0%) of cells, with max limit 8
DILUPBiCGStab:  Solving for h, Initial residual = 0.004852243, Final residual = 8.613654e-06, No Iterations 1
limitTemperature limitT Lower limited 0 (0%) of cells, with min limit 280
limitTemperature limitT Upper limited 0 (0%) of cells, with max limit 800
limitTemperature limitT Unlimited Tmin 495.9272
limitTemperature limitT Unlimited Tmax 510.4073
GAMG:  Solving for p_rgh, Initial residual = 0.1937903, Final residual = 0.001191121, No Iterations 2
GAMG:  Solving for p_rgh, Initial residual = 0.001302843, Final residual = 7.866966e-06, No Iterations 6
limitVelocity limitU Limited 0 (0%) of cells, with max limit 8
time step continuity errors : sum local = 1.712927e-05, global = -3.760462e-17, cumulative = -1.353338e-15
rho min/max : 0.5325268 0.8154266
ExecutionTime = 0.23 s  ClockTime = 0 s

    min/max/integ(plate) = 6241.716, 6343.343, 1264.393
    min/max/integ(riser) = -5108.295, -3768.958, -924.2388
Time = 48

DILUPBiCGStab:  Solving for Ux, Initial residual = 0.01138061, Final residual = 2.561826e-05, No Iterations 1
DILUPBiCGStab:  Solving for Uy, Initial residual = 0.006879983, Final residual = 1.594256e-05, No Iterations 1
limitVelocity limitU Limited 0 (0%) of cells, with max limit 8
DILUPBiCGStab:  Solving for h, Initial residual = 0.00488299, Final residual = 8.514528e-06, No Iterations 1
limitTemperature limitT Lower limited 0 (0%) of cells, with min limit 280
limitTemperature limitT Upper limited 0 (0%) of cells, with max limit 800
limitTemperature limitT Unlimited Tmin 495.9274
limitTemperature limitT Unlimited Tmax 510.4181
GAMG:  Solving for p_rgh, Initial residual = 0.1934511, Final residual = 0.0009948505, No Iterations 2
GAMG:  Solving for p_rgh, Initial residual = 0.001064647, Final residual = 5.108614e-06, No Iterations 6
limitVelocity limitU Limited 0 (0%) of cells, with max limit 8
time step continuity errors : sum local = 1.078655e-05, global = -3.706518e-17, cumulative = -1.390403e-15
rho min/max : 0.5325294 0.8154265
ExecutionTime = 0.23 s  ClockTime = 0 s

    min/max/integ(plate) = 6241.695, 6343.387, 1264.402
    min/max/integ(riser) = -5108.315, -3769.004, -924.2424
Time = 49

DILUPBiCGStab:  Solving for Ux, Initial residual = 0.01122964, Final residual = 2.56983e-05, No Iterations 1
DILUPBiCGStab:  Solving for Uy, Initial residual = 0.006767706, Final residual = 1.563813e-05, No Iterations 1
limitVelocity limitU Limited 0 (0%) of cells, with max limit 8
DILUPBiCGStab:  Solving for h, Initial residual = 0.004918126, Final residual = 8.367704e-06, No Iterations 1
limitTemperature limitT Lower limited 0 (0%) of cells, with min limit 280
limitTemperature limitT Upper limited 0 (0%) of cells, with max limit 800
limitTemperature limitT Unlimited Tmin 495.928
limitTemperature limitT Unlimited Tmax 510.4301
GAMG:  Solving for p_rgh, Initial residual = 0.1945626, Final residual = 0.0009230846, No Iterations 2
GAMG:  Solving for p_rgh, Initial residual = 0.0009888477, Final residual = 4.623575e-06, No Iterations 5
limitVelocity limitU Limited 0 (0%) of cells, with max limit 8
time step continuity errors : sum local = 9.760269e-06, global = 2.184113e-17, cumulative = -1.368562e-15
rho min/max : 0.5325314 0.8154274
ExecutionTime = 0.23 s  ClockTime = 0 s

    min/max/integ(plate) = 6241.671, 6343.427, 1264.412
    min/max/integ(riser) = -5108.334, -3769.046, -924.246
Time = 50

DILUPBiCGStab:  Solving for Ux, Initial residual = 0.01109172, Final residual = 2.574057e-05, No Iterations 1
DILUPBiCGStab:  Solving for Uy, Initial residual = 0.006657739, Final residual = 1.535073e-05, No Iterations 1
limitVelocity limitU Limited 0 (0%) of cells, with max limit 8
DILUPBiCGStab:  Solving for h, Initial residual = 0.004948414, Final residual = 8.247651e-06, No Iterations 1
limitTemperature limitT Lower limited 0 (0%) of cells, with min limit 280
limitTemperature limitT Upper limited 0 (0%) of cells, with max limit 800
limitTemperature limitT Unlimited Tmin 495.9292
limitTemperature limitT Unlimited Tmax 510.4434
Solving view factor equations for band : 0
GAMG:  Solving for p_rgh, Initial residual = 0.1904134, Final residual = 0.0009288676, No Iterations 2
GAMG:  Solving for p_rgh, Initial residual = 0.001018387, Final residual = 8.893929e-06, No Iterations 5
limitVelocity limitU Limited 0 (0%) of cells, with max limit 8
time step continuity errors : sum local = 1.822449e-05, global = 4.709868e-17, cumulative = -1.321463e-15
rho min/max : 0.5325326 0.8154295
ExecutionTime = 0.24 s  ClockTime = 0 s

    min/max/integ(plate) = 6237.199, 6343.348, 1264.207
    min/max/integ(riser) = -5109.322, -3769.507, -924.4174
Time = 51

DILUPBiCGStab:  Solving for Ux, Initial residual = 0.01097597, Final residual = 2.561854e-05, No Iterations 1
DILUPBiCGStab:  Solving for Uy, Initial residual = 0.006554564, Final residual = 1.502164e-05, No Iterations 1
limitVelocity limitU Limited 0 (0%) of cells, with max limit 8
DILUPBiCGStab:  Solving for h, Initial residual = 0.00497328, Final residual = 8.124996e-06, No Iterations 1
limitTemperature limitT Lower limited 0 (0%) of cells, with min limit 280
limitTemperature limitT Upper limited 0 (0%) of cells, with max limit 800
limitTemperature limitT Unlimited Tmin 495.9309
limitTemperature limitT Unlimited Tmax 510.4578
GAMG:  Solving for p_rgh, Initial residual = 0.1855434, Final residual = 0.0009395901, No Iterations 2
GAMG:  Solving for p_rgh, Initial residual = 0.001038081, Final residual = 5.063993e-06, No Iterations 6
limitVelocity limitU Limited 0 (0%) of cells, with max limit 8
time step continuity errors : sum local = 1.01691e-05, global = -8.726861e-18, cumulative = -1.33019e-15
rho min/max : 0.5325332 0.8154324
ExecutionTime = 0.24 s  ClockTime = 0 s

    min/max/integ(plate) = 6237.171, 6343.705, 1264.216
    min/max/integ(riser) = -5109.341, -3769.544, -924.421
Time = 52

DILUPBiCGStab:  Solving for Ux, Initial residual = 0.01087236, Final residual = 2.550756e-05, No Iterations 1
DILUPBiCGStab:  Solving for Uy, Initial residual = 0.006452486, Final residual = 1.470956e-05, No Iterations 1
limitVelocity limitU Limited 0 (0%) of cells, with max limit 8
DILUPBiCGStab:  Solving for h, Initial residual = 0.004992243, Final residual = 8.029197e-06, No Iterations 1
limitTemperature limitT Lower limited 0 (0%) of cells, with min limit 280
limitTemperature limitT Upper limited 0 (0%) of cells, with max limit 800
limitTemperature limitT Unlimited Tmin 495.9331
limitTemperature limitT Unlimited Tmax 510.4734
GAMG:  Solving for p_rgh, Initial residual = 0.1821059, Final residual = 0.0009696044, No Iterations 2
GAMG:  Solving for p_rgh, Initial residual = 0.00106456, Final residual = 9.214808e-06, No Iterations 5
limitVelocity limitU Limited 0 (0%) of cells, with max limit 8
time step continuity errors : sum local = 1.823687e-05, global = 3.767654e-17, cumulative = -1.292513e-15
rho min/max : 0.5325336 0.8154356
ExecutionTime = 0.25 s  ClockTime = 0 s

    min/max/integ(plate) = 6237.141, 6344.044, 1264.226
    min/max/integ(riser) = -5109.36, -3769.578, -924.4244
Time = 53

DILUPBiCGStab:  Solving for Ux, Initial residual = 0.01078541, Final residual = 2.528496e-05, No Iterations 1
DILUPBiCGStab:  Solving for Uy, Initial residual = 0.006355903, Final residual = 1.433926e-05, No Iterations 1
limitVelocity limitU Limited 0 (0%) of cells, with max limit 8
DILUPBiCGStab:  Solving for h, Initial residual = 0.005020597, Final residual = 7.947793e-06, No Iterations 1
limitTemperature limitT Lower limited 0 (0%) of cells, with min limit 280
limitTemperature limitT Upper limited 0 (0%) of cells, with max limit 800
limitTemperature limitT Unlimited Tmin 495.936
limitTemperature limitT Unlimited Tmax 510.49
GAMG:  Solving for p_rgh, Initial residual = 0.1798352, Final residual = 0.0009722965, No Iterations 2
GAMG:  Solving for p_rgh, Initial residual = 0.001051501, Final residual = 5.525752e-06, No Iterations 5
limitVelocity limitU Limited 0 (0%) of cells, with max limit 8
time step continuity errors : sum local = 1.077158e-05, global = -1.227514e-17, cumulative = -1.304788e-15
rho min/max : 0.5325341 0.8154386
ExecutionTime = 0.25 s  ClockTime = 0 s

    min/max/integ(plate) = 6237.11, 6344.365, 1264.235
    min/max/integ(riser) = -5109.378, -3769.61, -924.4279
Time = 54

DILUPBiCGStab:  Solving for Ux, Initial residual = 0.01070005, Final residual = 2.488757e-05, No Iterations 1
DILUPBiCGStab:  Solving for Uy, Initial residual = 0.006267502, Final residual = 1.395459e-05, No Iterations 1
limitVelocity limitU Limited 0 (0%) of cells, with max limit 8
DILUPBiCGStab:  Solving for h, Initial residual = 0.00505233, Final residual = 7.850039e-06, No Iterations 1
limitTemperature limitT Lower limited 0 (0%) of cells, with min limit 280
limitTemperature limitT Upper limited 0 (0%) of cells, with max limit 800
limitTemperature limitT Unlimited Tmin 495.9395
limitTemperature limitT Unlimited Tmax 510.5077
GAMG:  Solving for p_rgh, Initial residual = 0.1750544, Final residual = 0.0008860489, No Iterations 2
GAMG:  Solving for p_rgh, Initial residual = 0.0009384835, Final residual = 7.669688e-06, No Iterations 4
limitVelocity limitU Limited 0 (0%) of cells, with max limit 8
time step continuity errors : sum local = 1.434982e-05, global = 6.443252e-17, cumulative = -1.240356e-15
rho min/max : 0.5325349 0.8154413
ExecutionTime = 0.25 s  ClockTime = 0 s

    min/max/integ(plate) = 6237.077, 6344.667, 1264.245
    min/max/integ(riser) = -5109.396, -3769.639, -924.4314
Time = 55

DILUPBiCGStab:  Solving for Ux, Initial residual = 0.01060791, Final residual = 2.463678e-05, No Iterations 1
DILUPBiCGStab:  Solving for Uy, Initial residual = 0.006175047, Final residual = 1.363246e-05, No Iterations 1
limitVelocity limitU Limited 0 (0%) of cells, with max limit 8
DILUPBiCGStab:  Solving for h, Initial residual = 0.005074355, Final residual = 7.716993e-06, No Iterations 1
limitTemperature limitT Lower limited 0 (0%) of cells, with min limit 280
limitTemperature limitT Upper limited 0 (0%) of cells, with max limit 800
limitTemperature limitT Unlimited Tmin 495.9438
limitTemperature limitT Unlimited Tmax 510.5263
Solving view factor equations for band : 0
GAMG:  Solving for p_rgh, Initial residual = 0.1747706, Final residual = 0.0009493905, No Iterations 2
GAMG:  Solving for p_rgh, Initial residual = 0.0009900989, Final residual = 9.646544e-06, No Iterations 4
limitVelocity limitU Limited 0 (0%) of cells, with max limit 8
time step continuity errors : sum local = 1.708914e-05, global = 5.827098e-17, cumulative = -1.182085e-15
rho min/max : 0.5325361 0.8154436
ExecutionTime = 0.26 s  ClockTime = 0 s

    min/max/integ(plate) = 6233.467, 6344.747, 1264.034
    min/max/integ(riser) = -5110.391, -3770.058, -924.6139
Time = 56

DILUPBiCGStab:  Solving for Ux, Initial residual = 0.01050685, Final residual = 2.443431e-05, No Iterations 1
DILUPBiCGStab:  Solving for Uy, Initial residual = 0.006080109, Final residual = 1.332099e-05, No Iterations 1
limitVelocity limitU Limited 0 (0%) of cells, with max limit 8
DILUPBiCGStab:  Solving for h, Initial residual = 0.005095887, Final residual = 7.56472e-06, No Iterations 1
limitTemperature limitT Lower limited 0 (0%) of cells, with min limit 280
limitTemperature limitT Upper limited 0 (0%) of cells, with max limit 800
limitTemperature limitT Unlimited Tmin 495.9489
limitTemperature limitT Unlimited Tmax 510.5459
GAMG:  Solving for p_rgh, Initial residual = 0.1742023, Final residual = 0.001145033, No Iterations 2
GAMG:  Solving for p_rgh, Initial residual = 0.001180634, Final residual = 8.752195e-06, No Iterations 4
limitVelocity limitU Limited 0 (0%) of cells, with max limit 8
time step continuity errors : sum local = 1.57113e-05, global = -6.299403e-17, cumulative = -1.245079e-15
rho min/max : 0.5325375 0.8154459
ExecutionTime = 0.26 s  ClockTime = 0 s

    min/max/integ(plate) = 6233.431, 6345.008, 1264.044
    min/max/integ(riser) = -5110.408, -3770.083, -924.6173
Time = 57

DILUPBiCGStab:  Solving for Ux, Initial residual = 0.0104112, Final residual = 2.421994e-05, No Iterations 1
DILUPBiCGStab:  Solving for Uy, Initial residual = 0.005985815, Final residual = 1.303224e-05, No Iterations 1
limitVelocity limitU Limited 0 (0%) of cells, with max limit 8
DILUPBiCGStab:  Solving for h, Initial residual = 0.005117063, Final residual = 7.405789e-06, No Iterations 1
limitTemperature limitT Lower limited 0 (0%) of cells, with min limit 280
limitTemperature limitT Upper limited 0 (0%) of cells, with max limit 800
limitTemperature limitT Unlimited Tmin 495.9548
limitTemperature limitT Unlimited Tmax 510.5664
GAMG:  Solving for p_rgh, Initial residual = 0.1732897, Final residual = 0.001170398, No Iterations 2
GAMG:  Solving for p_rgh, Initial residual = 0.001199163, Final residual = 9.283784e-06, No Iterations 4
limitVelocity limitU Limited 0 (0%) of cells, with max limit 8
time step continuity errors : sum local = 1.615379e-05, global = -1.762155e-18, cumulative = -1.246841e-15
rho min/max : 0.5325389 0.8154482
ExecutionTime = 0.26 s  ClockTime = 0 s

    min/max/integ(plate) = 6233.393, 6345.25, 1264.053
    min/max/integ(riser) = -5110.424, -3770.106, -924.6207
Time = 58

DILUPBiCGStab:  Solving for Ux, Initial residual = 0.01034579, Final residual = 2.414202e-05, No Iterations 1
DILUPBiCGStab:  Solving for Uy, Initial residual = 0.005893763, Final residual = 1.277084e-05, No Iterations 1
limitVelocity limitU Limited 0 (0%) of cells, with max limit 8
DILUPBiCGStab:  Solving for h, Initial residual = 0.005142856, Final residual = 7.298474e-06, No Iterations 1
limitTemperature limitT Lower limited 0 (0%) of cells, with min limit 280
limitTemperature limitT Upper limited 0 (0%) of cells, with max limit 800
limitTemperature limitT Unlimited Tmin 495.9616
limitTemperature limitT Unlimited Tmax 510.5877
GAMG:  Solving for p_rgh, Initial residual = 0.165738, Final residual = 0.001032543, No Iterations 2
GAMG:  Solving for p_rgh, Initial residual = 0.001056531, Final residual = 7.359787e-06, No Iterations 4
limitVelocity limitU Limited 0 (0%) of cells, with max limit 8
time step continuity errors : sum local = 1.19075e-05, global = -1.605359e-16, cumulative = -1.407377e-15
rho min/max : 0.5325402 0.8154507
ExecutionTime = 0.27 s  ClockTime = 0 s

    min/max/integ(plate) = 6233.353, 6345.47, 1264.062
    min/max/integ(riser) = -5110.439, -3770.127, -924.624
Time = 59

DILUPBiCGStab:  Solving for Ux, Initial residual = 0.01029606, Final residual = 2.416822e-05, No Iterations 1
DILUPBiCGStab:  Solving for Uy, Initial residual = 0.00581372, Final residual = 1.251996e-05, No Iterations 1
limitVelocity limitU Limited 0 (0%) of cells, with max limit 8
DILUPBiCGStab:  Solving for h, Initial residual = 0.005164231, Final residual = 7.238929e-06, No Iterations 1
limitTemperature limitT Lower limited 0 (0%) of cells, with min limit 280
limitTemperature limitT Upper limited 0 (0%) of cells, with max limit 800
limitTemperature limitT Unlimited Tmin 495.9694
limitTemperature limitT Unlimited Tmax 510.6099
GAMG:  Solving for p_rgh, Initial residual = 0.1604809, Final residual = 0.0008610649, No Iterations 2
GAMG:  Solving for p_rgh, Initial residual = 0.0008938767, Final residual = 6.160951e-06, No Iterations 4
limitVelocity limitU Limited 0 (0%) of cells, with max limit 8
time step continuity errors : sum local = 1.055639e-05, global = 7.454094e-17, cumulative = -1.332836e-15
rho min/max : 0.5325416 0.8154534
ExecutionTime = 0.27 s  ClockTime = 0 s

    min/max/integ(plate) = 6233.313, 6345.67, 1264.071
    min/max/integ(riser) = -5110.453, -3770.146, -924.6273
Time = 60

DILUPBiCGStab:  Solving for Ux, Initial residual = 0.01024023, Final residual = 2.416249e-05, No Iterations 1
DILUPBiCGStab:  Solving for Uy, Initial residual = 0.005733527, Final residual = 1.225399e-05, No Iterations 1
limitVelocity limitU Limited 0 (0%) of cells, with max limit 8
DILUPBiCGStab:  Solving for h, Initial residual = 0.005185668, Final residual = 7.195453e-06, No Iterations 1
limitTemperature limitT Lower limited 0 (0%) of cells, with min limit 280
limitTemperature limitT Upper limited 0 (0%) of cells, with max limit 800
limitTemperature limitT Unlimited Tmin 495.9782
limitTemperature limitT Unlimited Tmax 510.6329
Solving view factor equations for band : 0
GAMG:  Solving for p_rgh, Initial residual = 0.1608212, Final residual = 0.0007498892, No Iterations 2
GAMG:  Solving for p_rgh, Initial residual = 0.0007888923, Final residual = 7.43527e-06, No Iterations 4
limitVelocity limitU Limited 0 (0%) of cells, with max limit 8
time step continuity errors : sum local = 1.259202e-05, global = 8.913865e-17, cumulative = -1.243697e-15
rho min/max : 0.5325429 0.8154562
ExecutionTime = 0.27 s  ClockTime = 0 s

    min/max/integ(plate) = 6230.599, 6345.597, 1263.858
    min/max/integ(riser) = -5111.427, -3770.528, -924.8223
Time = 61

DILUPBiCGStab:  Solving for Ux, Initial residual = 0.01018784, Final residual = 2.424161e-05, No Iterations 1
DILUPBiCGStab:  Solving for Uy, Initial residual = 0.005652831, Final residual = 1.196914e-05, No Iterations 1
limitVelocity limitU Limited 0 (0%) of cells, with max limit 8
DILUPBiCGStab:  Solving for h, Initial residual = 0.005202668, Final residual = 7.183414e-06, No Iterations 1
limitTemperature limitT Lower limited 0 (0%) of cells, with min limit 280
limitTemperature limitT Upper limited 0 (0%) of cells, with max limit 800
limitTemperature limitT Unlimited Tmin 495.9881
limitTemperature limitT Unlimited Tmax 510.6566
GAMG:  Solving for p_rgh, Initial residual = 0.1617995, Final residual = 0.0007644577, No Iterations 2
GAMG:  Solving for p_rgh, Initial residual = 0.0008073695, Final residual = 7.693677e-06, No Iterations 4
limitVelocity limitU Limited 0 (0%) of cells, with max limit 8
time step continuity errors : sum local = 1.286129e-05, global = 5.065895e-17, cumulative = -1.193039e-15
rho min/max : 0.5325442 0.8154591
ExecutionTime = 0.28 s  ClockTime = 0 s

    min/max/integ(plate) = 6230.556, 6345.755, 1263.867
    min/max/integ(riser) = -5111.439, -3770.544, -924.8256
Time = 62

DILUPBiCGStab:  Solving for Ux, Initial residual = 0.01013296, Final residual = 2.429026e-05, No Iterations 1
DILUPBiCGStab:  Solving for Uy, Initial residual = 0.005573941, Final residual = 1.176792e-05, No Iterations 1
limitVelocity limitU Limited 0 (0%) of cells, with max limit 8
DILUPBiCGStab:  Solving for h, Initial residual = 0.005220546, Final residual = 7.162217e-06, No Iterations 1
limitTemperature limitT Lower limited 0 (0%) of cells, with min limit 280
limitTemperature limitT Upper limited 0 (0%) of cells, with max limit 800
limitTemperature limitT Unlimited Tmin 495.999
limitTemperature limitT Unlimited Tmax 510.6811
GAMG:  Solving for p_rgh, Initial residual = 0.1598307, Final residual = 0.0007943182, No Iterations 2
GAMG:  Solving for p_rgh, Initial residual = 0.0008277149, Final residual = 6.496917e-06, No Iterations 4
limitVelocity limitU Limited 0 (0%) of cells, with max limit 8
time step continuity errors : sum local = 1.084953e-05, global = 1.368127e-16, cumulative = -1.056226e-15
rho min/max : 0.5325455 0.815462
ExecutionTime = 0.28 s  ClockTime = 0 s

    min/max/integ(plate) = 6230.511, 6345.892, 1263.876
    min/max/integ(riser) = -5111.45, -3770.559, -924.8288
Time = 63

DILUPBiCGStab:  Solving for Ux, Initial residual = 0.01009467, Final residual = 2.428289e-05, No Iterations 1
DILUPBiCGStab:  Solving for Uy, Initial residual = 0.005496634, Final residual = 1.153772e-05, No Iterations 1
limitVelocity limitU Limited 0 (0%) of cells, with max limit 8
DILUPBiCGStab:  Solving for h, Initial residual = 0.005238131, Final residual = 7.150239e-06, No Iterations 1
limitTemperature limitT Lower limited 0 (0%) of cells, with min limit 280
limitTemperature limitT Upper limited 0 (0%) of cells, with max limit 800
limitTemperature limitT Unlimited Tmin 495.9966
limitTemperature limitT Unlimited Tmax 510.7063
GAMG:  Solving for p_rgh, Initial residual = 0.1579261, Final residual = 0.0007488453, No Iterations 2
GAMG:  Solving for p_rgh, Initial residual = 0.0007721568, Final residual = 4.287309e-06, No Iterations 4
limitVelocity limitU Limited 0 (0%) of cells, with max limit 8
time step continuity errors : sum local = 7.101433e-06, global = 3.86715e-17, cumulative = -1.017554e-15
rho min/max : 0.5325468 0.8154648
ExecutionTime = 0.28 s  ClockTime = 0 s

    min/max/integ(plate) = 6230.465, 6346.007, 1263.885
    min/max/integ(riser) = -5111.461, -3770.572, -924.832
Time = 64

DILUPBiCGStab:  Solving for Ux, Initial residual = 0.01007565, Final residual = 2.436389e-05, No Iterations 1
DILUPBiCGStab:  Solving for Uy, Initial residual = 0.005421743, Final residual = 1.130127e-05, No Iterations 1
limitVelocity limitU Limited 0 (0%) of cells, with max limit 8
DILUPBiCGStab:  Solving for h, Initial residual = 0.005249352, Final residual = 7.155324e-06, No Iterations 1
[...]
rho min/max : 0.5402546 0.8272353
ExecutionTime = 8 s  ClockTime = 8 s

    min/max/integ(plate) = 5976.987, 6284.79, 1243.136
    min/max/integ(riser) = -5189.451, -3961.512, -945.2615
Time = 1985

DILUPBiCGStab:  Solving for Ux, Initial residual = 0.001418135, Final residual = 4.456178e-06, No Iterations 1
DILUPBiCGStab:  Solving for Uy, Initial residual = 0.0007377183, Final residual = 1.734394e-06, No Iterations 1
limitVelocity limitU Limited 0 (0%) of cells, with max limit 8
DILUPBiCGStab:  Solving for h, Initial residual = 0.002871664, Final residual = 6.908521e-06, No Iterations 1
limitTemperature limitT Lower limited 0 (0%) of cells, with min limit 280
limitTemperature limitT Upper limited 0 (0%) of cells, with max limit 800
limitTemperature limitT Unlimited Tmin 498.1896
limitTemperature limitT Unlimited Tmax 527.0581
Solving view factor equations for band : 0
GAMG:  Solving for p_rgh, Initial residual = 0.02316975, Final residual = 0.0001719103, No Iterations 2
GAMG:  Solving for p_rgh, Initial residual = 0.0001729597, Final residual = 1.117529e-06, No Iterations 5
limitVelocity limitU Limited 0 (0%) of cells, with max limit 8
time step continuity errors : sum local = 7.021862e-07, global = -4.624157e-18, cumulative = 9.105488e-16
rho min/max : 0.5402507 0.8272293
ExecutionTime = 8 s  ClockTime = 8 s

    min/max/integ(plate) = 5976.347, 6285.257, 1243.137
    min/max/integ(riser) = -5189.447, -3960.351, -945.2295
Time = 1986

DILUPBiCGStab:  Solving for Ux, Initial residual = 0.001414038, Final residual = 4.427026e-06, No Iterations 1
DILUPBiCGStab:  Solving for Uy, Initial residual = 0.0007362549, Final residual = 1.721756e-06, No Iterations 1
limitVelocity limitU Limited 0 (0%) of cells, with max limit 8
DILUPBiCGStab:  Solving for h, Initial residual = 0.002866631, Final residual = 6.899542e-06, No Iterations 1
limitTemperature limitT Lower limited 0 (0%) of cells, with min limit 280
limitTemperature limitT Upper limited 0 (0%) of cells, with max limit 800
limitTemperature limitT Unlimited Tmin 498.1654
limitTemperature limitT Unlimited Tmax 527.0667
GAMG:  Solving for p_rgh, Initial residual = 0.02498279, Final residual = 0.0001767519, No Iterations 2
GAMG:  Solving for p_rgh, Initial residual = 0.0001775956, Final residual = 1.129115e-06, No Iterations 5
limitVelocity limitU Limited 0 (0%) of cells, with max limit 8
time step continuity errors : sum local = 7.099026e-07, global = 6.456738e-18, cumulative = 9.170055e-16
rho min/max : 0.5402468 0.8272233
ExecutionTime = 8 s  ClockTime = 8 s

    min/max/integ(plate) = 5976.332, 6285.111, 1243.12
    min/max/integ(riser) = -5189.466, -3960.304, -945.2247
Time = 1987

DILUPBiCGStab:  Solving for Ux, Initial residual = 0.001409767, Final residual = 4.400615e-06, No Iterations 1
DILUPBiCGStab:  Solving for Uy, Initial residual = 0.0007345374, Final residual = 1.710789e-06, No Iterations 1
limitVelocity limitU Limited 0 (0%) of cells, with max limit 8
DILUPBiCGStab:  Solving for h, Initial residual = 0.002861477, Final residual = 6.8873e-06, No Iterations 1
limitTemperature limitT Lower limited 0 (0%) of cells, with min limit 280
limitTemperature limitT Upper limited 0 (0%) of cells, with max limit 800
limitTemperature limitT Unlimited Tmin 498.1414
limitTemperature limitT Unlimited Tmax 527.0753
GAMG:  Solving for p_rgh, Initial residual = 0.02721605, Final residual = 0.0001813466, No Iterations 2
GAMG:  Solving for p_rgh, Initial residual = 0.0001821202, Final residual = 1.132486e-06, No Iterations 5
limitVelocity limitU Limited 0 (0%) of cells, with max limit 8
time step continuity errors : sum local = 7.142738e-07, global = -9.324735e-18, cumulative = 9.076808e-16
rho min/max : 0.5402429 0.8272173
ExecutionTime = 8.01 s  ClockTime = 8 s

    min/max/integ(plate) = 5976.317, 6284.962, 1243.103
    min/max/integ(riser) = -5189.485, -3960.257, -945.22
Time = 1988

DILUPBiCGStab:  Solving for Ux, Initial residual = 0.001405424, Final residual = 4.378553e-06, No Iterations 1
DILUPBiCGStab:  Solving for Uy, Initial residual = 0.0007326313, Final residual = 1.698722e-06, No Iterations 1
limitVelocity limitU Limited 0 (0%) of cells, with max limit 8
DILUPBiCGStab:  Solving for h, Initial residual = 0.002855378, Final residual = 6.871112e-06, No Iterations 1
limitTemperature limitT Lower limited 0 (0%) of cells, with min limit 280
limitTemperature limitT Upper limited 0 (0%) of cells, with max limit 800
limitTemperature limitT Unlimited Tmin 498.1176
limitTemperature limitT Unlimited Tmax 527.0837
GAMG:  Solving for p_rgh, Initial residual = 0.02827508, Final residual = 0.0001860457, No Iterations 2
GAMG:  Solving for p_rgh, Initial residual = 0.0001866461, Final residual = 1.133982e-06, No Iterations 5
limitVelocity limitU Limited 0 (0%) of cells, with max limit 8
time step continuity errors : sum local = 7.193069e-07, global = 1.97628e-17, cumulative = 9.274436e-16
rho min/max : 0.540239 0.8272113
ExecutionTime = 8.01 s  ClockTime = 8 s

    min/max/integ(plate) = 5976.302, 6284.81, 1243.086
    min/max/integ(riser) = -5189.505, -3960.211, -945.2154
Time = 1989

DILUPBiCGStab:  Solving for Ux, Initial residual = 0.001401091, Final residual = 4.353721e-06, No Iterations 1
DILUPBiCGStab:  Solving for Uy, Initial residual = 0.0007304594, Final residual = 1.686347e-06, No Iterations 1
limitVelocity limitU Limited 0 (0%) of cells, with max limit 8
DILUPBiCGStab:  Solving for h, Initial residual = 0.002850546, Final residual = 6.858015e-06, No Iterations 1
limitTemperature limitT Lower limited 0 (0%) of cells, with min limit 280
limitTemperature limitT Upper limited 0 (0%) of cells, with max limit 800
limitTemperature limitT Unlimited Tmin 498.094
limitTemperature limitT Unlimited Tmax 527.0921
GAMG:  Solving for p_rgh, Initial residual = 0.02838382, Final residual = 0.0001946184, No Iterations 2
GAMG:  Solving for p_rgh, Initial residual = 0.0001953043, Final residual = 1.156666e-06, No Iterations 5
limitVelocity limitU Limited 0 (0%) of cells, with max limit 8
time step continuity errors : sum local = 7.349033e-07, global = 1.281683e-17, cumulative = 9.402604e-16
rho min/max : 0.5402351 0.8272054
ExecutionTime = 8.01 s  ClockTime = 8 s

    min/max/integ(plate) = 5976.287, 6284.654, 1243.069
    min/max/integ(riser) = -5189.525, -3960.164, -945.2108
Time = 1990

DILUPBiCGStab:  Solving for Ux, Initial residual = 0.001396697, Final residual = 4.320375e-06, No Iterations 1
DILUPBiCGStab:  Solving for Uy, Initial residual = 0.0007281952, Final residual = 1.670692e-06, No Iterations 1
limitVelocity limitU Limited 0 (0%) of cells, with max limit 8
DILUPBiCGStab:  Solving for h, Initial residual = 0.002845489, Final residual = 6.846595e-06, No Iterations 1
limitTemperature limitT Lower limited 0 (0%) of cells, with min limit 280
limitTemperature limitT Upper limited 0 (0%) of cells, with max limit 800
limitTemperature limitT Unlimited Tmin 498.0706
limitTemperature limitT Unlimited Tmax 527.1004
Solving view factor equations for band : 0
GAMG:  Solving for p_rgh, Initial residual = 0.02847555, Final residual = 0.0002000874, No Iterations 2
GAMG:  Solving for p_rgh, Initial residual = 0.0002010168, Final residual = 1.197588e-06, No Iterations 5
limitVelocity limitU Limited 0 (0%) of cells, with max limit 8
time step continuity errors : sum local = 7.565047e-07, global = 1.12682e-17, cumulative = 9.515286e-16
rho min/max : 0.5402312 0.8271995
ExecutionTime = 8.02 s  ClockTime = 8 s

    min/max/integ(plate) = 5975.656, 6285.124, 1243.074
    min/max/integ(riser) = -5189.502, -3959.008, -945.1768
Time = 1991

DILUPBiCGStab:  Solving for Ux, Initial residual = 0.001390955, Final residual = 4.281597e-06, No Iterations 1
DILUPBiCGStab:  Solving for Uy, Initial residual = 0.0007254088, Final residual = 1.652493e-06, No Iterations 1
limitVelocity limitU Limited 0 (0%) of cells, with max limit 8
DILUPBiCGStab:  Solving for h, Initial residual = 0.002840206, Final residual = 6.832376e-06, No Iterations 1
limitTemperature limitT Lower limited 0 (0%) of cells, with min limit 280
limitTemperature limitT Upper limited 0 (0%) of cells, with max limit 800
limitTemperature limitT Unlimited Tmin 498.0475
limitTemperature limitT Unlimited Tmax 527.1086
GAMG:  Solving for p_rgh, Initial residual = 0.02748283, Final residual = 0.0001955766, No Iterations 2
GAMG:  Solving for p_rgh, Initial residual = 0.0001962865, Final residual = 1.2151e-06, No Iterations 5
limitVelocity limitU Limited 0 (0%) of cells, with max limit 8
time step continuity errors : sum local = 7.609475e-07, global = 5.334414e-19, cumulative = 9.52062e-16
rho min/max : 0.5402273 0.8271935
ExecutionTime = 8.02 s  ClockTime = 8 s

    min/max/integ(plate) = 5975.642, 6284.962, 1243.057
    min/max/integ(riser) = -5189.523, -3958.962, -945.1723
Time = 1992

DILUPBiCGStab:  Solving for Ux, Initial residual = 0.001383727, Final residual = 4.23888e-06, No Iterations 1
DILUPBiCGStab:  Solving for Uy, Initial residual = 0.0007221837, Final residual = 1.636905e-06, No Iterations 1
limitVelocity limitU Limited 0 (0%) of cells, with max limit 8
DILUPBiCGStab:  Solving for h, Initial residual = 0.002835326, Final residual = 6.812788e-06, No Iterations 1
limitTemperature limitT Lower limited 0 (0%) of cells, with min limit 280
limitTemperature limitT Upper limited 0 (0%) of cells, with max limit 800
limitTemperature limitT Unlimited Tmin 498.0245
limitTemperature limitT Unlimited Tmax 527.1168
GAMG:  Solving for p_rgh, Initial residual = 0.02621599, Final residual = 0.0001857386, No Iterations 2
GAMG:  Solving for p_rgh, Initial residual = 0.0001857398, Final residual = 1.223999e-06, No Iterations 5
limitVelocity limitU Limited 0 (0%) of cells, with max limit 8
time step continuity errors : sum local = 7.58566e-07, global = -1.228713e-19, cumulative = 9.519392e-16
rho min/max : 0.5402234 0.8271876
ExecutionTime = 8.02 s  ClockTime = 8 s

    min/max/integ(plate) = 5975.628, 6284.797, 1243.041
    min/max/integ(riser) = -5189.543, -3958.917, -945.1679
Time = 1993

DILUPBiCGStab:  Solving for Ux, Initial residual = 0.00137659, Final residual = 4.195043e-06, No Iterations 1
DILUPBiCGStab:  Solving for Uy, Initial residual = 0.0007190913, Final residual = 1.621069e-06, No Iterations 1
limitVelocity limitU Limited 0 (0%) of cells, with max limit 8
DILUPBiCGStab:  Solving for h, Initial residual = 0.002829982, Final residual = 6.791513e-06, No Iterations 1
limitTemperature limitT Lower limited 0 (0%) of cells, with min limit 280
limitTemperature limitT Upper limited 0 (0%) of cells, with max limit 800
limitTemperature limitT Unlimited Tmin 498.0018
limitTemperature limitT Unlimited Tmax 527.1248
GAMG:  Solving for p_rgh, Initial residual = 0.02496816, Final residual = 0.0001783351, No Iterations 2
GAMG:  Solving for p_rgh, Initial residual = 0.0001780104, Final residual = 1.24689e-06, No Iterations 5
limitVelocity limitU Limited 0 (0%) of cells, with max limit 8
time step continuity errors : sum local = 7.623152e-07, global = -1.170274e-17, cumulative = 9.402364e-16
rho min/max : 0.5402195 0.8271816
ExecutionTime = 8.03 s  ClockTime = 8 s

    min/max/integ(plate) = 5975.613, 6284.629, 1243.024
    min/max/integ(riser) = -5189.564, -3958.871, -945.1636
Time = 1994

DILUPBiCGStab:  Solving for Ux, Initial residual = 0.001369172, Final residual = 4.149778e-06, No Iterations 1
DILUPBiCGStab:  Solving for Uy, Initial residual = 0.0007160575, Final residual = 1.603133e-06, No Iterations 1
limitVelocity limitU Limited 0 (0%) of cells, with max limit 8
DILUPBiCGStab:  Solving for h, Initial residual = 0.002824259, Final residual = 6.77103e-06, No Iterations 1
limitTemperature limitT Lower limited 0 (0%) of cells, with min limit 280
limitTemperature limitT Upper limited 0 (0%) of cells, with max limit 800
limitTemperature limitT Unlimited Tmin 497.9793
limitTemperature limitT Unlimited Tmax 527.1328
GAMG:  Solving for p_rgh, Initial residual = 0.02358723, Final residual = 0.0001731988, No Iterations 2
GAMG:  Solving for p_rgh, Initial residual = 0.0001732817, Final residual = 1.277843e-06, No Iterations 5
limitVelocity limitU Limited 0 (0%) of cells, with max limit 8
time step continuity errors : sum local = 7.67583e-07, global = -1.864048e-18, cumulative = 9.383724e-16
rho min/max : 0.5402156 0.8271756
ExecutionTime = 8.03 s  ClockTime = 8 s

    min/max/integ(plate) = 5975.599, 6284.46, 1243.007
    min/max/integ(riser) = -5189.586, -3958.825, -945.1593
Time = 1995

DILUPBiCGStab:  Solving for Ux, Initial residual = 0.00136303, Final residual = 4.114672e-06, No Iterations 1
DILUPBiCGStab:  Solving for Uy, Initial residual = 0.0007130683, Final residual = 1.586461e-06, No Iterations 1
limitVelocity limitU Limited 0 (0%) of cells, with max limit 8
DILUPBiCGStab:  Solving for h, Initial residual = 0.002818217, Final residual = 6.748665e-06, No Iterations 1
limitTemperature limitT Lower limited 0 (0%) of cells, with min limit 280
limitTemperature limitT Upper limited 0 (0%) of cells, with max limit 800
limitTemperature limitT Unlimited Tmin 497.957
limitTemperature limitT Unlimited Tmax 527.1406
Solving view factor equations for band : 0
GAMG:  Solving for p_rgh, Initial residual = 0.02220713, Final residual = 0.0001699453, No Iterations 2
GAMG:  Solving for p_rgh, Initial residual = 0.0001702822, Final residual = 1.308179e-06, No Iterations 5
limitVelocity limitU Limited 0 (0%) of cells, with max limit 8
time step continuity errors : sum local = 7.808487e-07, global = -3.551581e-17, cumulative = 9.028566e-16
rho min/max : 0.5402117 0.8271696
ExecutionTime = 8.03 s  ClockTime = 8 s

    min/max/integ(plate) = 5974.982, 6284.931, 1243.016
    min/max/integ(riser) = -5189.546, -3957.676, -945.1238
Time = 1996

DILUPBiCGStab:  Solving for Ux, Initial residual = 0.001357338, Final residual = 4.085474e-06, No Iterations 1
DILUPBiCGStab:  Solving for Uy, Initial residual = 0.0007104892, Final residual = 1.571232e-06, No Iterations 1
limitVelocity limitU Limited 0 (0%) of cells, with max limit 8
DILUPBiCGStab:  Solving for h, Initial residual = 0.002811468, Final residual = 6.726107e-06, No Iterations 1
limitTemperature limitT Lower limited 0 (0%) of cells, with min limit 280
limitTemperature limitT Upper limited 0 (0%) of cells, with max limit 800
limitTemperature limitT Unlimited Tmin 497.935
limitTemperature limitT Unlimited Tmax 527.1483
GAMG:  Solving for p_rgh, Initial residual = 0.02219555, Final residual = 0.0001689126, No Iterations 2
GAMG:  Solving for p_rgh, Initial residual = 0.0001694671, Final residual = 1.328598e-06, No Iterations 5
limitVelocity limitU Limited 0 (0%) of cells, with max limit 8
time step continuity errors : sum local = 7.926025e-07, global = -4.558226e-18, cumulative = 8.982983e-16
rho min/max : 0.5402078 0.8271636
ExecutionTime = 8.04 s  ClockTime = 8 s

    min/max/integ(plate) = 5974.968, 6284.757, 1242.999
    min/max/integ(riser) = -5189.567, -3957.63, -945.1197
Time = 1997

DILUPBiCGStab:  Solving for Ux, Initial residual = 0.001351297, Final residual = 4.053368e-06, No Iterations 1
DILUPBiCGStab:  Solving for Uy, Initial residual = 0.000707715, Final residual = 1.555583e-06, No Iterations 1
limitVelocity limitU Limited 0 (0%) of cells, with max limit 8
DILUPBiCGStab:  Solving for h, Initial residual = 0.002805109, Final residual = 6.705761e-06, No Iterations 1
limitTemperature limitT Lower limited 0 (0%) of cells, with min limit 280
limitTemperature limitT Upper limited 0 (0%) of cells, with max limit 800
limitTemperature limitT Unlimited Tmin 497.9132
limitTemperature limitT Unlimited Tmax 527.156
GAMG:  Solving for p_rgh, Initial residual = 0.022637, Final residual = 0.0001688344, No Iterations 2
GAMG:  Solving for p_rgh, Initial residual = 0.0001697946, Final residual = 1.341358e-06, No Iterations 5
limitVelocity limitU Limited 0 (0%) of cells, with max limit 8
time step continuity errors : sum local = 8.002326e-07, global = 1.173871e-17, cumulative = 9.100371e-16
rho min/max : 0.5402039 0.8271576
ExecutionTime = 8.04 s  ClockTime = 8 s

    min/max/integ(plate) = 5974.955, 6284.582, 1242.983
    min/max/integ(riser) = -5189.589, -3957.584, -945.1156
Time = 1998

DILUPBiCGStab:  Solving for Ux, Initial residual = 0.001345401, Final residual = 4.021184e-06, No Iterations 1
DILUPBiCGStab:  Solving for Uy, Initial residual = 0.0007051223, Final residual = 1.539313e-06, No Iterations 1
limitVelocity limitU Limited 0 (0%) of cells, with max limit 8
DILUPBiCGStab:  Solving for h, Initial residual = 0.002799831, Final residual = 6.682943e-06, No Iterations 1
limitTemperature limitT Lower limited 0 (0%) of cells, with min limit 280
limitTemperature limitT Upper limited 0 (0%) of cells, with max limit 800
limitTemperature limitT Unlimited Tmin 497.8917
limitTemperature limitT Unlimited Tmax 527.1635
GAMG:  Solving for p_rgh, Initial residual = 0.02329439, Final residual = 0.0001684963, No Iterations 2
GAMG:  Solving for p_rgh, Initial residual = 0.0001696942, Final residual = 1.340757e-06, No Iterations 5
limitVelocity limitU Limited 0 (0%) of cells, with max limit 8
time step continuity errors : sum local = 8.008123e-07, global = 7.537107e-18, cumulative = 9.175742e-16
rho min/max : 0.5401999 0.8271516
ExecutionTime = 8.05 s  ClockTime = 8 s

    min/max/integ(plate) = 5974.942, 6284.406, 1242.966
    min/max/integ(riser) = -5189.611, -3957.538, -945.1115
Time = 1999

DILUPBiCGStab:  Solving for Ux, Initial residual = 0.00133966, Final residual = 3.986023e-06, No Iterations 1
DILUPBiCGStab:  Solving for Uy, Initial residual = 0.0007026251, Final residual = 1.521033e-06, No Iterations 1
limitVelocity limitU Limited 0 (0%) of cells, with max limit 8
DILUPBiCGStab:  Solving for h, Initial residual = 0.002793965, Final residual = 6.662426e-06, No Iterations 1
limitTemperature limitT Lower limited 0 (0%) of cells, with min limit 280
limitTemperature limitT Upper limited 0 (0%) of cells, with max limit 800
limitTemperature limitT Unlimited Tmin 497.8704
limitTemperature limitT Unlimited Tmax 527.171
GAMG:  Solving for p_rgh, Initial residual = 0.02419756, Final residual = 0.0001691448, No Iterations 2
GAMG:  Solving for p_rgh, Initial residual = 0.0001707936, Final residual = 1.35482e-06, No Iterations 5
limitVelocity limitU Limited 0 (0%) of cells, with max limit 8
time step continuity errors : sum local = 8.030256e-07, global = 1.781484e-17, cumulative = 9.35389e-16
rho min/max : 0.540196 0.8271456
ExecutionTime = 8.06 s  ClockTime = 8 s

    min/max/integ(plate) = 5974.929, 6284.229, 1242.95
    min/max/integ(riser) = -5189.632, -3957.491, -945.1075
Time = 2000

DILUPBiCGStab:  Solving for Ux, Initial residual = 0.001334117, Final residual = 3.949719e-06, No Iterations 1
DILUPBiCGStab:  Solving for Uy, Initial residual = 0.000699815, Final residual = 1.501434e-06, No Iterations 1
limitVelocity limitU Limited 0 (0%) of cells, with max limit 8
DILUPBiCGStab:  Solving for h, Initial residual = 0.002787521, Final residual = 6.641367e-06, No Iterations 1
limitTemperature limitT Lower limited 0 (0%) of cells, with min limit 280
limitTemperature limitT Upper limited 0 (0%) of cells, with max limit 800
limitTemperature limitT Unlimited Tmin 497.8493
limitTemperature limitT Unlimited Tmax 527.1783
Solving view factor equations for band : 0
GAMG:  Solving for p_rgh, Initial residual = 0.02491169, Final residual = 0.0001697846, No Iterations 2
GAMG:  Solving for p_rgh, Initial residual = 0.0001720222, Final residual = 1.376566e-06, No Iterations 5
limitVelocity limitU Limited 0 (0%) of cells, with max limit 8
time step continuity errors : sum local = 8.049947e-07, global = -7.165496e-18, cumulative = 9.282235e-16
rho min/max : 0.540192 0.8271395
ExecutionTime = 8.06 s  ClockTime = 8 s

    min/max/integ(plate) = 5974.329, 6284.702, 1242.962
    min/max/integ(riser) = -5189.578, -3956.35, -945.071
wallHeatFlux wallHeatFlux write:
    writing field wallHeatFlux
End

