/*---------------------------------------------------------------------------*\
| =========                 |                                                 |
| \\      /  F ield         | OpenFOAM: The Open Source CFD Toolbox           |
|  \\    /   O peration     | Version:  2312                                  |
|   \\  /    A nd           | Website:  www.openfoam.com                      |
|    \\/     M anipulation  |                                                 |
\*---------------------------------------------------------------------------*/
Build  : _c39a0f64-20231220 OPENFOAM=2312 version=2312
Arch   : "LSB;label=32;scalar=64"
Exec   : buoyantSimpleFoam
Date   : Jul 02 2026
Time   : 08:41:56
Host   : 58034434e143
PID    : 231
I/O    : uncollated
Case   : /case
nProcs : 1
trapFpe: Floating point exception trapping enabled (FOAM_SIGFPE).
fileModificationChecking : Monitoring run-time modified files using timeStampMaster (fileModificationSkew 5, maxFileModificationPolls 20)
allowSystemOperations : Allowing user-supplied system call operations

// * * * * * * * * * * * * * * * * * * * * * * * * * * * * * * * * * * * * * //
Create time

Create mesh for time = 3500


SIMPLE: convergence criteria
    field p_rgh	 tolerance 0.0001
    field U	 tolerance 0.0001
    field h	 tolerance 0.0001
    field "(k|omega)"	 tolerance 0.001

Reading thermophysical properties

Selecting thermodynamics package 
{
    type            heRhoThermo;
    mixture         pureMixture;
    transport       const;
    thermo          hConst;
    equationOfState perfectGas;
    specie          specie;
    energy          sensibleEnthalpy;
}

Reading field U

Reading/calculating face flux field phi

Creating turbulence model

Selecting turbulence model type RAS
Selecting RAS turbulence model kOmegaSST
Selecting patchDistMethod meshWave
RAS
{
    RASModel        kOmegaSST;
    turbulence      on;
    printCoeffs     on;
    alphaK1         0.85;
    alphaK2         1;
    alphaOmega1     0.5;
    alphaOmega2     0.856;
    gamma1          0.5555556;
    gamma2          0.44;
    beta1           0.075;
    beta2           0.0828;
    betaStar        0.09;
    a1              0.31;
    b1              1;
    c1              10;
    F3              false;
    decayControl    false;
    kInf            0;
    omegaInf        0;
}


Reading g

Reading hRef
Calculating field g.h

Reading field p_rgh

No MRF models present

Selecting radiationModel fvDOM
Selecting absorptionEmissionModel constantAbsorptionEmission
Selecting scatterModel none
Selecting sootModel none
fvDOM : Allocated 16 rays with average orientation:
	I0 : dAve : 	(0.1195698 0.6011177 2.944771e-33) : omega : 	0.7853982 : d : 	(0.1950903 0.9807853 6.123234e-17)
	I1 : dAve : 	(0.3405058 0.509603 2.944771e-33) : omega : 	0.7853982 : d : 	(0.5555702 0.8314696 6.123234e-17)
	I2 : dAve : 	(0.509603 0.3405058 2.944771e-33) : omega : 	0.7853982 : d : 	(0.8314696 0.5555702 6.123234e-17)
	I3 : dAve : 	(0.6011177 0.1195698 2.944771e-33) : omega : 	0.7853982 : d : 	(0.9807853 0.1950903 6.123234e-17)
	I4 : dAve : 	(0.6011177 -0.1195698 2.944771e-33) : omega : 	0.7853982 : d : 	(0.9807853 -0.1950903 6.123234e-17)
	I5 : dAve : 	(0.509603 -0.3405058 2.944771e-33) : omega : 	0.7853982 : d : 	(0.8314696 -0.5555702 6.123234e-17)
	I6 : dAve : 	(0.3405058 -0.509603 2.944771e-33) : omega : 	0.7853982 : d : 	(0.5555702 -0.8314696 6.123234e-17)
	I7 : dAve : 	(0.1195698 -0.6011177 2.944771e-33) : omega : 	0.7853982 : d : 	(0.1950903 -0.9807853 6.123234e-17)
	I8 : dAve : 	(-0.1195698 -0.6011177 2.944771e-33) : omega : 	0.7853982 : d : 	(-0.1950903 -0.9807853 6.123234e-17)
	I9 : dAve : 	(-0.3405058 -0.509603 2.944771e-33) : omega : 	0.7853982 : d : 	(-0.5555702 -0.8314696 6.123234e-17)
	I10 : dAve : 	(-0.509603 -0.3405058 2.944771e-33) : omega : 	0.7853982 : d : 	(-0.8314696 -0.5555702 6.123234e-17)
	I11 : dAve : 	(-0.6011177 -0.1195698 2.944771e-33) : omega : 	0.7853982 : d : 	(-0.9807853 -0.1950903 6.123234e-17)
	I12 : dAve : 	(-0.6011177 0.1195698 2.944771e-33) : omega : 	0.7853982 : d : 	(-0.9807853 0.1950903 6.123234e-17)
	I13 : dAve : 	(-0.509603 0.3405058 2.944771e-33) : omega : 	0.7853982 : d : 	(-0.8314696 0.5555702 6.123234e-17)
	I14 : dAve : 	(-0.3405058 0.509603 2.944771e-33) : omega : 	0.7853982 : d : 	(-0.5555702 0.8314696 6.123234e-17)
	I15 : dAve : 	(-0.1195698 0.6011177 2.944771e-33) : omega : 	0.7853982 : d : 	(-0.1950903 0.9807853 6.123234e-17)
Total omega : 12.56637

Creating finite volume options from "system/fvOptions"

Selecting finite volume options type limitTemperature
    Source: limitT
    - selecting all cells
    - selected 12000 cell(s) with volume 0.473422
Selecting finite volume options type limitVelocity
    Source: limitU
    - selecting all cells
    - selected 12000 cell(s) with volume 0.473422

Starting time loop

surfaceFieldValue wallT:
    operation     = areaAverage


surfaceFieldValue wallTriser:
    operation     = areaAverage


Time = 3501

DILUPBiCGStab:  Solving for h, Initial residual = 0.0003372176, Final residual = 1.532978e-07, No Iterations 1
limitTemperature limitT Lower limited 0 (0%) of cells, with min limit 280
limitTemperature limitT Upper limited 0 (0%) of cells, with max limit 1200
limitTemperature limitT Unlimited Tmin 415.3665
limitTemperature limitT Unlimited Tmax 500.8666
Radiation solver iter: 0
Selecting boundary radiation Model: lookup
Selecting boundary radiation Model: lookup
Selecting boundary radiation Model: lookup
DILUPBiCGStab:  Solving for ILambda_0_0, Initial residual = 0.3913281, Final residual = 3.886803e-15, No Iterations 1
DILUPBiCGStab:  Solving for ILambda_1_0, Initial residual = 0.6186404, Final residual = 4.4785e-15, No Iterations 1
DILUPBiCGStab:  Solving for ILambda_2_0, Initial residual = 0.7515522, Final residual = 4.43034e-15, No Iterations 1
DILUPBiCGStab:  Solving for ILambda_3_0, Initial residual = 0.8525361, Final residual = 5.019724e-15, No Iterations 1
DILUPBiCGStab:  Solving for ILambda_4_0, Initial residual = 0.8659476, Final residual = 0.0553778, No Iterations 4
DILUPBiCGStab:  Solving for ILambda_5_0, Initial residual = 0.7901503, Final residual = 0.0003510913, No Iterations 14
DILUPBiCGStab:  Solving for ILambda_6_0, Initial residual = 0.6792443, Final residual = 0.05477152, No Iterations 20
DILUPBiCGStab:  Solving for ILambda_7_0, Initial residual = 0.4655652, Final residual = 0.03015633, No Iterations 34
DILUPBiCGStab:  Solving for ILambda_8_0, Initial residual = 0.3765917, Final residual = 3.257739e-15, No Iterations 1
DILUPBiCGStab:  Solving for ILambda_9_0, Initial residual = 0.5742269, Final residual = 3.639519e-15, No Iterations 1
DILUPBiCGStab:  Solving for ILambda_10_0, Initial residual = 0.7231064, Final residual = 3.615324e-15, No Iterations 1
DILUPBiCGStab:  Solving for ILambda_11_0, Initial residual = 0.8311147, Final residual = 3.74262e-15, No Iterations 1
DILUPBiCGStab:  Solving for ILambda_12_0, Initial residual = 0.8657566, Final residual = 0.006394825, No Iterations 5
DILUPBiCGStab:  Solving for ILambda_13_0, Initial residual = 0.822779, Final residual = 0.006170251, No Iterations 11
DILUPBiCGStab:  Solving for ILambda_14_0, Initial residual = 0.7570089, Final residual = 0.05364959, No Iterations 16
DILUPBiCGStab:  Solving for ILambda_15_0, Initial residual = 0.6348788, Final residual = 0.0327336, No Iterations 30
Radiation solver iter: 1
DILUPBiCGStab:  Solving for ILambda_0_0, Initial residual = 0.051904, Final residual = 2.203624e-16, No Iterations 1
DILUPBiCGStab:  Solving for ILambda_1_0, Initial residual = 0.06974058, Final residual = 2.371801e-16, No Iterations 1
DILUPBiCGStab:  Solving for ILambda_2_0, Initial residual = 0.09216672, Final residual = 3.16998e-16, No Iterations 1
DILUPBiCGStab:  Solving for ILambda_3_0, Initial residual = 0.1150781, Final residual = 4.522336e-16, No Iterations 1
DILUPBiCGStab:  Solving for ILambda_4_0, Initial residual = 0.257894, Final residual = 0.006713702, No Iterations 5
DILUPBiCGStab:  Solving for ILambda_5_0, Initial residual = 0.1032871, Final residual = 0.006831079, No Iterations 9
DILUPBiCGStab:  Solving for ILambda_6_0, Initial residual = 0.1378176, Final residual = 0.004956152, No Iterations 13
DILUPBiCGStab:  Solving for ILambda_7_0, Initial residual = 0.06193497, Final residual = 0.004989019, No Iterations 20
DILUPBiCGStab:  Solving for ILambda_8_0, Initial residual = 0.05728518, Final residual = 2.630571e-16, No Iterations 1
DILUPBiCGStab:  Solving for ILambda_9_0, Initial residual = 0.06625762, Final residual = 2.835868e-16, No Iterations 1
DILUPBiCGStab:  Solving for ILambda_10_0, Initial residual = 0.07682085, Final residual = 3.047701e-16, No Iterations 1
DILUPBiCGStab:  Solving for ILambda_11_0, Initial residual = 0.0849278, Final residual = 3.680951e-16, No Iterations 1
DILUPBiCGStab:  Solving for ILambda_12_0, Initial residual = 0.1098022, Final residual = 0.00561573, No Iterations 4
DILUPBiCGStab:  Solving for ILambda_13_0, Initial residual = 0.09859018, Final residual = 0.00701347, No Iterations 7
DILUPBiCGStab:  Solving for ILambda_14_0, Initial residual = 0.1612426, Final residual = 0.01380229, No Iterations 10
DILUPBiCGStab:  Solving for ILambda_15_0, Initial residual = 0.1130388, Final residual = 0.007910538, No Iterations 20
Radiation solver iter: 2
DILUPBiCGStab:  Solving for ILambda_0_0, Initial residual = 0.02453514, Final residual = 5.23869e-17, No Iterations 1
DILUPBiCGStab:  Solving for ILambda_1_0, Initial residual = 0.03039317, Final residual = 3.804984e-17, No Iterations 1
DILUPBiCGStab:  Solving for ILambda_2_0, Initial residual = 0.03568619, Final residual = 3.851233e-17, No Iterations 1
DILUPBiCGStab:  Solving for ILambda_3_0, Initial residual = 0.03051973, Final residual = 3.535666e-17, No Iterations 1
DILUPBiCGStab:  Solving for ILambda_4_0, Initial residual = 0.03712865, Final residual = 0.002492096, No Iterations 3
DILUPBiCGStab:  Solving for ILambda_5_0, Initial residual = 0.04298779, Final residual = 0.002411456, No Iterations 6
DILUPBiCGStab:  Solving for ILambda_6_0, Initial residual = 0.04065007, Final residual = 0.001306046, No Iterations 9
DILUPBiCGStab:  Solving for ILambda_7_0, Initial residual = 0.0300198, Final residual = 0.002932194, No Iterations 9
DILUPBiCGStab:  Solving for ILambda_8_0, Initial residual = 0.02382581, Final residual = 4.708689e-17, No Iterations 1
DILUPBiCGStab:  Solving for ILambda_9_0, Initial residual = 0.02760703, Final residual = 4.909008e-17, No Iterations 1
DILUPBiCGStab:  Solving for ILambda_10_0, Initial residual = 0.02925883, Final residual = 5.775418e-17, No Iterations 1
DILUPBiCGStab:  Solving for ILambda_11_0, Initial residual = 0.02638963, Final residual = 7.586337e-17, No Iterations 1
DILUPBiCGStab:  Solving for ILambda_12_0, Initial residual = 0.03075216, Final residual = 0.002458537, No Iterations 4
DILUPBiCGStab:  Solving for ILambda_13_0, Initial residual = 0.03761081, Final residual = 0.003069086, No Iterations 8
DILUPBiCGStab:  Solving for ILambda_14_0, Initial residual = 0.04737947, Final residual = 0.004242342, No Iterations 11
DILUPBiCGStab:  Solving for ILambda_15_0, Initial residual = 0.04514525, Final residual = 0.004322738, No Iterations 15
Radiation solver iter: 3
DILUPBiCGStab:  Solving for ILambda_0_0, Initial residual = 0.0190404, Final residual = 3.146113e-17, No Iterations 1
DILUPBiCGStab:  Solving for ILambda_1_0, Initial residual = 0.02085303, Final residual = 2.157269e-17, No Iterations 1
DILUPBiCGStab:  Solving for ILambda_2_0, Initial residual = 0.02026607, Final residual = 1.668125e-17, No Iterations 1
DILUPBiCGStab:  Solving for ILambda_3_0, Initial residual = 0.01195752, Final residual = 1.024689e-17, No Iterations 1
DILUPBiCGStab:  Solving for ILambda_4_0, Initial residual = 0.01286203, Final residual = 0.0007319281, No Iterations 2
DILUPBiCGStab:  Solving for ILambda_5_0, Initial residual = 0.02497913, Final residual = 0.001788824, No Iterations 4
DILUPBiCGStab:  Solving for ILambda_6_0, Initial residual = 0.02749774, Final residual = 0.002584677, No Iterations 4
DILUPBiCGStab:  Solving for ILambda_7_0, Initial residual = 0.02351946, Final residual = 0.0008684347, No Iterations 12
DILUPBiCGStab:  Solving for ILambda_8_0, Initial residual = 0.01917866, Final residual = 2.81856e-17, No Iterations 1
DILUPBiCGStab:  Solving for ILambda_9_0, Initial residual = 0.02186741, Final residual = 3.031145e-17, No Iterations 1
DILUPBiCGStab:  Solving for ILambda_10_0, Initial residual = 0.02097445, Final residual = 3.683829e-17, No Iterations 1
DILUPBiCGStab:  Solving for ILambda_11_0, Initial residual = 0.01604162, Final residual = 4.679996e-17, No Iterations 1
DILUPBiCGStab:  Solving for ILambda_12_0, Initial residual = 0.01715863, Final residual = 0.0006287977, No Iterations 4
DILUPBiCGStab:  Solving for ILambda_13_0, Initial residual = 0.02506958, Final residual = 0.002484479, No Iterations 8
DILUPBiCGStab:  Solving for ILambda_14_0, Initial residual = 0.0297034, Final residual = 0.002144156, No Iterations 9
DILUPBiCGStab:  Solving for ILambda_15_0, Initial residual = 0.03220851, Final residual = 0.001875821, No Iterations 9
Radiation solver iter: 4
DILUPBiCGStab:  Solving for ILambda_0_0, Initial residual = 0.01576911, Final residual = 2.491275e-17, No Iterations 1
DILUPBiCGStab:  Solving for ILambda_1_0, Initial residual = 0.01555283, Final residual = 1.6069e-17, No Iterations 1
DILUPBiCGStab:  Solving for ILambda_2_0, Initial residual = 0.01278074, Final residual = 1.239296e-17, No Iterations 1
DILUPBiCGStab:  Solving for ILambda_3_0, Initial residual = 0.004742618, Final residual = 3.471715e-18, No Iterations 1
DILUPBiCGStab:  Solving for ILambda_4_0, Initial residual = 0.004478, Final residual = 0.0003348718, No Iterations 2
DILUPBiCGStab:  Solving for ILambda_5_0, Initial residual = 0.01601282, Final residual = 0.001592785, No Iterations 3
DILUPBiCGStab:  Solving for ILambda_6_0, Initial residual = 0.02180299, Final residual = 0.001676522, No Iterations 4
DILUPBiCGStab:  Solving for ILambda_7_0, Initial residual = 0.01922234, Final residual = 0.00154981, No Iterations 5
DILUPBiCGStab:  Solving for ILambda_8_0, Initial residual = 0.0162507, Final residual = 2.02804e-17, No Iterations 1
DILUPBiCGStab:  Solving for ILambda_9_0, Initial residual = 0.01818852, Final residual = 2.581751e-17, No Iterations 1
DILUPBiCGStab:  Solving for ILambda_10_0, Initial residual = 0.01545971, Final residual = 2.669816e-17, No Iterations 1
DILUPBiCGStab:  Solving for ILambda_11_0, Initial residual = 0.01025273, Final residual = 2.816726e-17, No Iterations 1
DILUPBiCGStab:  Solving for ILambda_12_0, Initial residual = 0.01087306, Final residual = 0.0009011239, No Iterations 3
DILUPBiCGStab:  Solving for ILambda_13_0, Initial residual = 0.01882143, Final residual = 0.001605923, No Iterations 7
DILUPBiCGStab:  Solving for ILambda_14_0, Initial residual = 0.02402647, Final residual = 0.002228986, No Iterations 8
DILUPBiCGStab:  Solving for ILambda_15_0, Initial residual = 0.02600081, Final residual = 0.002399138, No Iterations 6
Radiation solver iter: 5
DILUPBiCGStab:  Solving for ILambda_0_0, Initial residual = 0.01347947, Final residual = 1.679843e-17, No Iterations 1
DILUPBiCGStab:  Solving for ILambda_1_0, Initial residual = 0.01207484, Final residual = 8.967667e-18, No Iterations 1
DILUPBiCGStab:  Solving for ILambda_2_0, Initial residual = 0.0083779, Final residual = 6.598039e-18, No Iterations 1
DILUPBiCGStab:  Solving for ILambda_3_0, Initial residual = 0.001854426, Final residual = 1.485892e-18, No Iterations 1
DILUPBiCGStab:  Solving for ILambda_4_0, Initial residual = 0.001670751, Final residual = 0.0001429245, No Iterations 2
DILUPBiCGStab:  Solving for ILambda_5_0, Initial residual = 0.01070183, Final residual = 0.0004714933, No Iterations 4
DILUPBiCGStab:  Solving for ILambda_6_0, Initial residual = 0.01766679, Final residual = 0.001614163, No Iterations 4
DILUPBiCGStab:  Solving for ILambda_7_0, Initial residual = 0.01694619, Final residual = 0.00102446, No Iterations 5
DILUPBiCGStab:  Solving for ILambda_8_0, Initial residual = 0.01415058, Final residual = 1.636559e-17, No Iterations 1
DILUPBiCGStab:  Solving for ILambda_9_0, Initial residual = 0.01515418, Final residual = 1.925075e-17, No Iterations 1
DILUPBiCGStab:  Solving for ILambda_10_0, Initial residual = 0.0113113, Final residual = 1.762919e-17, No Iterations 1
DILUPBiCGStab:  Solving for ILambda_11_0, Initial residual = 0.006897886, Final residual = 1.981152e-17, No Iterations 1
DILUPBiCGStab:  Solving for ILambda_12_0, Initial residual = 0.007619765, Final residual = 0.0005939116, No Iterations 4
DILUPBiCGStab:  Solving for ILambda_13_0, Initial residual = 0.01323347, Final residual = 0.0009952759, No Iterations 8
DILUPBiCGStab:  Solving for ILambda_14_0, Initial residual = 0.01949509, Final residual = 0.001081445, No Iterations 9
DILUPBiCGStab:  Solving for ILambda_15_0, Initial residual = 0.0228135, Final residual = 0.0019814, No Iterations 6
Radiation solver iter: 6
DILUPBiCGStab:  Solving for ILambda_0_0, Initial residual = 0.01164508, Final residual = 1.467945e-17, No Iterations 1
DILUPBiCGStab:  Solving for ILambda_1_0, Initial residual = 0.009492874, Final residual = 7.735111e-18, No Iterations 1
DILUPBiCGStab:  Solving for ILambda_2_0, Initial residual = 0.005557949, Final residual = 3.930642e-18, No Iterations 1
DILUPBiCGStab:  Solving for ILambda_3_0, Initial residual = 0.0007172934, Final residual = 7.024525e-19, No Iterations 1
DILUPBiCGStab:  Solving for ILambda_4_0, Initial residual = 0.0006700665, Final residual = 7.248708e-05, No Iterations 2
DILUPBiCGStab:  Solving for ILambda_5_0, Initial residual = 0.0068919, Final residual = 0.0006022407, No Iterations 3
DILUPBiCGStab:  Solving for ILambda_6_0, Initial residual = 0.01435071, Final residual = 0.0008290439, No Iterations 3
DILUPBiCGStab:  Solving for ILambda_7_0, Initial residual = 0.01475213, Final residual = 0.001128196, No Iterations 4
DILUPBiCGStab:  Solving for ILambda_8_0, Initial residual = 0.01237717, Final residual = 1.218953e-17, No Iterations 1
DILUPBiCGStab:  Solving for ILambda_9_0, Initial residual = 0.01243175, Final residual = 1.526433e-17, No Iterations 1
DILUPBiCGStab:  Solving for ILambda_10_0, Initial residual = 0.008461765, Final residual = 1.292863e-17, No Iterations 1
DILUPBiCGStab:  Solving for ILambda_11_0, Initial residual = 0.00514154, Final residual = 1.407691e-17, No Iterations 1
DILUPBiCGStab:  Solving for ILambda_12_0, Initial residual = 0.005460463, Final residual = 0.0004171482, No Iterations 4
DILUPBiCGStab:  Solving for ILambda_13_0, Initial residual = 0.009732476, Final residual = 0.0005622341, No Iterations 8
DILUPBiCGStab:  Solving for ILambda_14_0, Initial residual = 0.01516345, Final residual = 0.0006347521, No Iterations 11
DILUPBiCGStab:  Solving for ILambda_15_0, Initial residual = 0.01964709, Final residual = 0.0008541548, No Iterations 7
Radiation solver iter: 7
DILUPBiCGStab:  Solving for ILambda_0_0, Initial residual = 0.01007529, Final residual = 1.058362e-17, No Iterations 1
DILUPBiCGStab:  Solving for ILambda_1_0, Initial residual = 0.00750133, Final residual = 4.899018e-18, No Iterations 1
DILUPBiCGStab:  Solving for ILambda_2_0, Initial residual = 0.003639886, Final residual = 1.905859e-18, No Iterations 1
DILUPBiCGStab:  Solving for ILambda_5_0, Initial residual = 0.00443677, Final residual = 0.0004409099, No Iterations 3
DILUPBiCGStab:  Solving for ILambda_6_0, Initial residual = 0.01142362, Final residual = 0.0009844354, No Iterations 2
DILUPBiCGStab:  Solving for ILambda_7_0, Initial residual = 0.01302539, Final residual = 0.0008418305, No Iterations 4
DILUPBiCGStab:  Solving for ILambda_8_0, Initial residual = 0.01075418, Final residual = 1.119493e-17, No Iterations 1
DILUPBiCGStab:  Solving for ILambda_9_0, Initial residual = 0.01013683, Final residual = 1.149859e-17, No Iterations 1
DILUPBiCGStab:  Solving for ILambda_10_0, Initial residual = 0.006704296, Final residual = 9.279086e-18, No Iterations 1
DILUPBiCGStab:  Solving for ILambda_11_0, Initial residual = 0.004120528, Final residual = 1.088198e-17, No Iterations 1
DILUPBiCGStab:  Solving for ILambda_12_0, Initial residual = 0.004363893, Final residual = 0.0003018143, No Iterations 4
DILUPBiCGStab:  Solving for ILambda_13_0, Initial residual = 0.007729429, Final residual = 0.0004028762, No Iterations 8
DILUPBiCGStab:  Solving for ILambda_14_0, Initial residual = 0.01174578, Final residual = 0.001030859, No Iterations 5
DILUPBiCGStab:  Solving for ILambda_15_0, Initial residual = 0.01647271, Final residual = 0.00164634, No Iterations 4
Radiation solver iter: 8
DILUPBiCGStab:  Solving for ILambda_0_0, Initial residual = 0.00869902, Final residual = 9.240776e-18, No Iterations 1
DILUPBiCGStab:  Solving for ILambda_1_0, Initial residual = 0.005928362, Final residual = 3.16947e-18, No Iterations 1
DILUPBiCGStab:  Solving for ILambda_2_0, Initial residual = 0.002318152, Final residual = 1.103743e-18, No Iterations 1
DILUPBiCGStab:  Solving for ILambda_5_0, Initial residual = 0.002735369, Final residual = 0.0001954153, No Iterations 3
DILUPBiCGStab:  Solving for ILambda_6_0, Initial residual = 0.009111758, Final residual = 0.0007232812, No Iterations 2
DILUPBiCGStab:  Solving for ILambda_7_0, Initial residual = 0.01138775, Final residual = 0.0006010834, No Iterations 4
DILUPBiCGStab:  Solving for ILambda_8_0, Initial residual = 0.009280174, Final residual = 7.435637e-18, No Iterations 1
DILUPBiCGStab:  Solving for ILambda_9_0, Initial residual = 0.008293736, Final residual = 8.326959e-18, No Iterations 1
DILUPBiCGStab:  Solving for ILambda_10_0, Initial residual = 0.005604257, Final residual = 7.620235e-18, No Iterations 1
DILUPBiCGStab:  Solving for ILambda_11_0, Initial residual = 0.003431937, Final residual = 8.74026e-18, No Iterations 1
DILUPBiCGStab:  Solving for ILambda_12_0, Initial residual = 0.003580978, Final residual = 2.532769e-05, No Iterations 5
DILUPBiCGStab:  Solving for ILambda_13_0, Initial residual = 0.006405905, Final residual = 0.0006069968, No Iterations 6
DILUPBiCGStab:  Solving for ILambda_14_0, Initial residual = 0.009533641, Final residual = 0.0003888954, No Iterations 8
DILUPBiCGStab:  Solving for ILambda_15_0, Initial residual = 0.01431325, Final residual = 0.0008968546, No Iterations 5
Radiation solver iter: 9
DILUPBiCGStab:  Solving for ILambda_0_0, Initial residual = 0.007508042, Final residual = 6.968905e-18, No Iterations 1
DILUPBiCGStab:  Solving for ILambda_1_0, Initial residual = 0.004650823, Final residual = 2.541281e-18, No Iterations 1
DILUPBiCGStab:  Solving for ILambda_2_0, Initial residual = 0.001439948, Final residual = 6.125161e-19, No Iterations 1
DILUPBiCGStab:  Solving for ILambda_5_0, Initial residual = 0.001645622, Final residual = 0.0001581152, No Iterations 2
DILUPBiCGStab:  Solving for ILambda_6_0, Initial residual = 0.007151176, Final residual = 0.0005193089, No Iterations 2
DILUPBiCGStab:  Solving for ILambda_7_0, Initial residual = 0.009889834, Final residual = 0.000766634, No Iterations 3
DILUPBiCGStab:  Solving for ILambda_8_0, Initial residual = 0.008006791, Final residual = 5.889565e-18, No Iterations 1
DILUPBiCGStab:  Solving for ILambda_9_0, Initial residual = 0.00687379, Final residual = 7.716587e-18, No Iterations 1
DILUPBiCGStab:  Solving for ILambda_10_0, Initial residual = 0.004758091, Final residual = 6.610992e-18, No Iterations 1
DILUPBiCGStab:  Solving for ILambda_11_0, Initial residual = 0.002837509, Final residual = 7.586534e-18, No Iterations 1
DILUPBiCGStab:  Solving for ILambda_12_0, Initial residual = 0.003018937, Final residual = 0.000164031, No Iterations 4
DILUPBiCGStab:  Solving for ILambda_13_0, Initial residual = 0.005597587, Final residual = 0.0003807953, No Iterations 7
DILUPBiCGStab:  Solving for ILambda_14_0, Initial residual = 0.007853635, Final residual = 0.0006567376, No Iterations 8
DILUPBiCGStab:  Solving for ILambda_15_0, Initial residual = 0.01208375, Final residual = 0.0009815095, No Iterations 5
Radiation solver iter: 10
DILUPBiCGStab:  Solving for ILambda_0_0, Initial residual = 0.006445343, Final residual = 5.598356e-18, No Iterations 1
DILUPBiCGStab:  Solving for ILambda_1_0, Initial residual = 0.003623278, Final residual = 2.114414e-18, No Iterations 1
DILUPBiCGStab:  Solving for ILambda_2_0, Initial residual = 0.0008653885, Final residual = 4.444587e-19, No Iterations 1
DILUPBiCGStab:  Solving for ILambda_5_0, Initial residual = 0.00095673, Final residual = 8.523427e-05, No Iterations 3
DILUPBiCGStab:  Solving for ILambda_6_0, Initial residual = 0.005513617, Final residual = 0.0003491653, No Iterations 2
DILUPBiCGStab:  Solving for ILambda_7_0, Initial residual = 0.008586829, Final residual = 0.0007330329, No Iterations 3
DILUPBiCGStab:  Solving for ILambda_8_0, Initial residual = 0.006888998, Final residual = 4.876801e-18, No Iterations 1
DILUPBiCGStab:  Solving for ILambda_9_0, Initial residual = 0.005747279, Final residual = 5.310977e-18, No Iterations 1
DILUPBiCGStab:  Solving for ILambda_10_0, Initial residual = 0.003987832, Final residual = 5.646732e-18, No Iterations 1
DILUPBiCGStab:  Solving for ILambda_11_0, Initial residual = 0.002284539, Final residual = 5.969661e-18, No Iterations 1
DILUPBiCGStab:  Solving for ILambda_12_0, Initial residual = 0.002510424, Final residual = 0.0001057928, No Iterations 4
DILUPBiCGStab:  Solving for ILambda_13_0, Initial residual = 0.004585516, Final residual = 0.0003771869, No Iterations 7
DILUPBiCGStab:  Solving for ILambda_14_0, Initial residual = 0.006642862, Final residual = 0.000294067, No Iterations 8
DILUPBiCGStab:  Solving for ILambda_15_0, Initial residual = 0.01033523, Final residual = 0.0002743613, No Iterations 6
Radiation solver iter: 11
DILUPBiCGStab:  Solving for ILambda_0_0, Initial residual = 0.005520159, Final residual = 4.556549e-18, No Iterations 1
DILUPBiCGStab:  Solving for ILambda_1_0, Initial residual = 0.002795473, Final residual = 1.265681e-18, No Iterations 1
DILUPBiCGStab:  Solving for ILambda_6_0, Initial residual = 0.004174062, Final residual = 0.0002272814, No Iterations 2
DILUPBiCGStab:  Solving for ILambda_7_0, Initial residual = 0.007399458, Final residual = 0.0005179777, No Iterations 3
DILUPBiCGStab:  Solving for ILambda_8_0, Initial residual = 0.005916108, Final residual = 4.543137e-18, No Iterations 1
DILUPBiCGStab:  Solving for ILambda_9_0, Initial residual = 0.004815748, Final residual = 4.701598e-18, No Iterations 1
DILUPBiCGStab:  Solving for ILambda_10_0, Initial residual = 0.003218361, Final residual = 4.257927e-18, No Iterations 1
DILUPBiCGStab:  Solving for ILambda_11_0, Initial residual = 0.001712496, Final residual = 4.585326e-18, No Iterations 1
DILUPBiCGStab:  Solving for ILambda_12_0, Initial residual = 0.001871, Final residual = 9.291331e-05, No Iterations 4
DILUPBiCGStab:  Solving for ILambda_13_0, Initial residual = 0.003673923, Final residual = 0.0003088973, No Iterations 6
DILUPBiCGStab:  Solving for ILambda_14_0, Initial residual = 0.005557543, Final residual = 0.0004143334, No Iterations 8
DILUPBiCGStab:  Solving for ILambda_15_0, Initial residual = 0.008714107, Final residual = 0.00071291, No Iterations 3
Radiation solver iter: 12
DILUPBiCGStab:  Solving for ILambda_0_0, Initial residual = 0.004703901, Final residual = 4.226861e-18, No Iterations 1
DILUPBiCGStab:  Solving for ILambda_1_0, Initial residual = 0.00213007, Final residual = 1.026753e-18, No Iterations 1
DILUPBiCGStab:  Solving for ILambda_6_0, Initial residual = 0.003105981, Final residual = 0.0002808042, No Iterations 2
DILUPBiCGStab:  Solving for ILambda_7_0, Initial residual = 0.00630581, Final residual = 0.0004931493, No Iterations 3
DILUPBiCGStab:  Solving for ILambda_8_0, Initial residual = 0.005084722, Final residual = 3.719468e-18, No Iterations 1
DILUPBiCGStab:  Solving for ILambda_9_0, Initial residual = 0.004069496, Final residual = 3.346096e-18, No Iterations 1
DILUPBiCGStab:  Solving for ILambda_10_0, Initial residual = 0.002571305, Final residual = 3.387302e-18, No Iterations 1
DILUPBiCGStab:  Solving for ILambda_11_0, Initial residual = 0.001296915, Final residual = 3.350552e-18, No Iterations 1
DILUPBiCGStab:  Solving for ILambda_12_0, Initial residual = 0.001411899, Final residual = 5.759095e-05, No Iterations 4
DILUPBiCGStab:  Solving for ILambda_13_0, Initial residual = 0.002952152, Final residual = 0.0001827339, No Iterations 7
DILUPBiCGStab:  Solving for ILambda_14_0, Initial residual = 0.004747159, Final residual = 0.0003788262, No Iterations 4
DILUPBiCGStab:  Solving for ILambda_15_0, Initial residual = 0.007578824, Final residual = 0.0004497269, No Iterations 4
Radiation solver iter: 13
DILUPBiCGStab:  Solving for ILambda_0_0, Initial residual = 0.00399229, Final residual = 3.023808e-18, No Iterations 1
DILUPBiCGStab:  Solving for ILambda_1_0, Initial residual = 0.001601271, Final residual = 9.895158e-19, No Iterations 1
DILUPBiCGStab:  Solving for ILambda_6_0, Initial residual = 0.002303093, Final residual = 0.0001842538, No Iterations 2
DILUPBiCGStab:  Solving for ILambda_7_0, Initial residual = 0.00537449, Final residual = 0.0005198193, No Iterations 3
DILUPBiCGStab:  Solving for ILambda_8_0, Initial residual = 0.004385334, Final residual = 2.805124e-18, No Iterations 1
DILUPBiCGStab:  Solving for ILambda_9_0, Initial residual = 0.003458987, Final residual = 2.833763e-18, No Iterations 1
DILUPBiCGStab:  Solving for ILambda_10_0, Initial residual = 0.002043097, Final residual = 2.619506e-18, No Iterations 1
DILUPBiCGStab:  Solving for ILambda_11_0, Initial residual = 0.001003031, Final residual = 2.811905e-18, No Iterations 1
DILUPBiCGStab:  Solving for ILambda_12_0, Initial residual = 0.001085377, Final residual = 4.823452e-05, No Iterations 4
DILUPBiCGStab:  Solving for ILambda_13_0, Initial residual = 0.002358906, Final residual = 7.338061e-05, No Iterations 8
DILUPBiCGStab:  Solving for ILambda_14_0, Initial residual = 0.004063833, Final residual = 0.000301083, No Iterations 6
DILUPBiCGStab:  Solving for ILambda_15_0, Initial residual = 0.006477254, Final residual = 0.0005075297, No Iterations 3
Radiation solver iter: 14
DILUPBiCGStab:  Solving for ILambda_0_0, Initial residual = 0.003372717, Final residual = 3.592651e-18, No Iterations 1
DILUPBiCGStab:  Solving for ILambda_1_0, Initial residual = 0.001187154, Final residual = 5.409902e-19, No Iterations 1
DILUPBiCGStab:  Solving for ILambda_6_0, Initial residual = 0.001681701, Final residual = 0.0001195209, No Iterations 2
DILUPBiCGStab:  Solving for ILambda_7_0, Initial residual = 0.004596116, Final residual = 0.0003092615, No Iterations 3
DILUPBiCGStab:  Solving for ILambda_8_0, Initial residual = 0.003786135, Final residual = 2.652581e-18, No Iterations 1
DILUPBiCGStab:  Solving for ILambda_9_0, Initial residual = 0.002936539, Final residual = 2.670809e-18, No Iterations 1
DILUPBiCGStab:  Solving for ILambda_10_0, Initial residual = 0.001612668, Final residual = 2.274525e-18, No Iterations 1
DILUPBiCGStab:  Solving for ILambda_11_0, Initial residual = 0.0007913251, Final residual = 2.198927e-18, No Iterations 1
DILUPBiCGStab:  Solving for ILambda_12_0, Initial residual = 0.0008545914, Final residual = 3.598973e-05, No Iterations 4
DILUPBiCGStab:  Solving for ILambda_13_0, Initial residual = 0.001836235, Final residual = 0.0001666044, No Iterations 6
DILUPBiCGStab:  Solving for ILambda_14_0, Initial residual = 0.003532624, Final residual = 0.000306474, No Iterations 6
DILUPBiCGStab:  Solving for ILambda_15_0, Initial residual = 0.005623186, Final residual = 0.00031939, No Iterations 4
GAMG:  Solving for p_rgh, Initial residual = 0.03930475, Final residual = 7.69092e-05, No Iterations 2
limitVelocity limitU Limited 0 (0%) of cells, with max limit 5
time step continuity errors : sum local = 0.0003183081, global = -1.664287e-17, cumulative = 2.273805e-15
rho min/max : 0.4662898 0.9627861
DILUPBiCGStab:  Solving for omega, Initial residual = 0.0003163195, Final residual = 9.899187e-06, No Iterations 1
DILUPBiCGStab:  Solving for k, Initial residual = 0.00061887, Final residual = 3.336046e-05, No Iterations 1
ExecutionTime = 0.61 s  ClockTime = 1 s

Time = 3502

DILUPBiCGStab:  Solving for h, Initial residual = 0.0003044816, Final residual = 1.503271e-07, No Iterations 1
limitTemperature limitT Lower limited 0 (0%) of cells, with min limit 280
limitTemperature limitT Upper limited 0 (0%) of cells, with max limit 1200
limitTemperature limitT Unlimited Tmin 415.365
limitTemperature limitT Unlimited Tmax 501.7752
GAMG:  Solving for p_rgh, Initial residual = 0.03204329, Final residual = 6.363612e-05, No Iterations 2
limitVelocity limitU Limited 0 (0%) of cells, with max limit 5
time step continuity errors : sum local = 0.0002865713, global = -3.127113e-17, cumulative = 2.242534e-15
rho min/max : 0.5614886 0.9582343
DILUPBiCGStab:  Solving for omega, Initial residual = 0.0002105844, Final residual = 7.399139e-06, No Iterations 1
DILUPBiCGStab:  Solving for k, Initial residual = 0.0005785729, Final residual = 3.274611e-05, No Iterations 1
ExecutionTime = 0.62 s  ClockTime = 1 s

Time = 3503

DILUPBiCGStab:  Solving for h, Initial residual = 0.0002600566, Final residual = 1.01356e-07, No Iterations 1
limitTemperature limitT Lower limited 0 (0%) of cells, with min limit 280
limitTemperature limitT Upper limited 0 (0%) of cells, with max limit 1200
limitTemperature limitT Unlimited Tmin 415.3796
limitTemperature limitT Unlimited Tmax 501.7888
GAMG:  Solving for p_rgh, Initial residual = 0.02627716, Final residual = 5.704494e-05, No Iterations 2
limitVelocity limitU Limited 0 (0%) of cells, with max limit 5
time step continuity errors : sum local = 0.0002634161, global = -7.693436e-20, cumulative = 2.242457e-15
rho min/max : 0.595402 0.9540824
DILUPBiCGStab:  Solving for omega, Initial residual = 0.0002041845, Final residual = 6.799854e-06, No Iterations 1
DILUPBiCGStab:  Solving for k, Initial residual = 0.0005507267, Final residual = 3.010121e-05, No Iterations 1
ExecutionTime = 0.64 s  ClockTime = 1 s

Time = 3504

DILUPBiCGStab:  Solving for h, Initial residual = 0.0003327494, Final residual = 1.847567e-07, No Iterations 1
limitTemperature limitT Lower limited 0 (0%) of cells, with min limit 280
limitTemperature limitT Upper limited 0 (0%) of cells, with max limit 1200
limitTemperature limitT Unlimited Tmin 415.4023
limitTemperature limitT Unlimited Tmax 501.0368
Radiation solver iter: 0
DILUPBiCGStab:  Solving for ILambda_0_0, Initial residual = 0.3630234, Final residual = 3.559274e-15, No Iterations 1
DILUPBiCGStab:  Solving for ILambda_1_0, Initial residual = 0.5778679, Final residual = 3.904755e-15, No Iterations 1
DILUPBiCGStab:  Solving for ILambda_2_0, Initial residual = 0.7188601, Final residual = 4.164919e-15, No Iterations 1
DILUPBiCGStab:  Solving for ILambda_3_0, Initial residual = 0.8243093, Final residual = 4.237423e-15, No Iterations 1
DILUPBiCGStab:  Solving for ILambda_4_0, Initial residual = 0.8235962, Final residual = 0.06533345, No Iterations 3
DILUPBiCGStab:  Solving for ILambda_5_0, Initial residual = 0.7227326, Final residual = 0.05467503, No Iterations 11
DILUPBiCGStab:  Solving for ILambda_6_0, Initial residual = 0.585138, Final residual = 0.00211647, No Iterations 20
DILUPBiCGStab:  Solving for ILambda_7_0, Initial residual = 0.3864072, Final residual = 0.02872995, No Iterations 32
DILUPBiCGStab:  Solving for ILambda_8_0, Initial residual = 0.4980428, Final residual = 4.308185e-15, No Iterations 1
DILUPBiCGStab:  Solving for ILambda_9_0, Initial residual = 0.6398655, Final residual = 4.05248e-15, No Iterations 1
DILUPBiCGStab:  Solving for ILambda_10_0, Initial residual = 0.7402898, Final residual = 4.087212e-15, No Iterations 1
DILUPBiCGStab:  Solving for ILambda_11_0, Initial residual = 0.8259395, Final residual = 4.334117e-15, No Iterations 1
DILUPBiCGStab:  Solving for ILambda_12_0, Initial residual = 0.8458907, Final residual = 0.03169405, No Iterations 4
DILUPBiCGStab:  Solving for ILambda_13_0, Initial residual = 0.7865679, Final residual = 0.03175209, No Iterations 10
DILUPBiCGStab:  Solving for ILambda_14_0, Initial residual = 0.7150101, Final residual = 0.06001879, No Iterations 17
DILUPBiCGStab:  Solving for ILambda_15_0, Initial residual = 0.6307634, Final residual = 0.04875164, No Iterations 26
Radiation solver iter: 1
DILUPBiCGStab:  Solving for ILambda_0_0, Initial residual = 0.1587294, Final residual = 6.617087e-16, No Iterations 1
DILUPBiCGStab:  Solving for ILambda_1_0, Initial residual = 0.1786006, Final residual = 5.712066e-16, No Iterations 1
DILUPBiCGStab:  Solving for ILambda_2_0, Initial residual = 0.1996591, Final residual = 5.982854e-16, No Iterations 1
DILUPBiCGStab:  Solving for ILambda_3_0, Initial residual = 0.1972934, Final residual = 6.728205e-16, No Iterations 1
DILUPBiCGStab:  Solving for ILambda_4_0, Initial residual = 0.4042069, Final residual = 0.03436941, No Iterations 4
DILUPBiCGStab:  Solving for ILambda_5_0, Initial residual = 0.3473812, Final residual = 0.03403255, No Iterations 9
DILUPBiCGStab:  Solving for ILambda_6_0, Initial residual = 0.1711313, Final residual = 0.01615231, No Iterations 12
DILUPBiCGStab:  Solving for ILambda_7_0, Initial residual = 0.1870634, Final residual = 0.01686304, No Iterations 17
DILUPBiCGStab:  Solving for ILambda_8_0, Initial residual = 0.05115688, Final residual = 2.519788e-16, No Iterations 1
DILUPBiCGStab:  Solving for ILambda_9_0, Initial residual = 0.06907022, Final residual = 3.147916e-16, No Iterations 1
DILUPBiCGStab:  Solving for ILambda_10_0, Initial residual = 0.09873972, Final residual = 4.15862e-16, No Iterations 1
DILUPBiCGStab:  Solving for ILambda_11_0, Initial residual = 0.1364323, Final residual = 5.93497e-16, No Iterations 1
DILUPBiCGStab:  Solving for ILambda_12_0, Initial residual = 0.2568612, Final residual = 0.01795539, No Iterations 4
DILUPBiCGStab:  Solving for ILambda_13_0, Initial residual = 0.2298409, Final residual = 0.003466142, No Iterations 9
DILUPBiCGStab:  Solving for ILambda_14_0, Initial residual = 0.2529162, Final residual = 0.005706796, No Iterations 16
DILUPBiCGStab:  Solving for ILambda_15_0, Initial residual = 0.1885384, Final residual = 0.01716255, No Iterations 22
Radiation solver iter: 2
DILUPBiCGStab:  Solving for ILambda_0_0, Initial residual = 0.08490951, Final residual = 1.941118e-16, No Iterations 1
DILUPBiCGStab:  Solving for ILambda_1_0, Initial residual = 0.08818132, Final residual = 1.172095e-16, No Iterations 1
DILUPBiCGStab:  Solving for ILambda_2_0, Initial residual = 0.08556535, Final residual = 9.797905e-17, No Iterations 1
DILUPBiCGStab:  Solving for ILambda_3_0, Initial residual = 0.05741394, Final residual = 7.520287e-17, No Iterations 1
DILUPBiCGStab:  Solving for ILambda_4_0, Initial residual = 0.0976449, Final residual = 0.001105371, No Iterations 4
DILUPBiCGStab:  Solving for ILambda_5_0, Initial residual = 0.1257173, Final residual = 0.01079958, No Iterations 5
DILUPBiCGStab:  Solving for ILambda_6_0, Initial residual = 0.1049829, Final residual = 0.008598741, No Iterations 9
DILUPBiCGStab:  Solving for ILambda_7_0, Initial residual = 0.1033565, Final residual = 0.009570141, No Iterations 9
DILUPBiCGStab:  Solving for ILambda_8_0, Initial residual = 0.01994871, Final residual = 3.587926e-17, No Iterations 1
DILUPBiCGStab:  Solving for ILambda_9_0, Initial residual = 0.0254405, Final residual = 4.364999e-17, No Iterations 1
DILUPBiCGStab:  Solving for ILambda_10_0, Initial residual = 0.03200888, Final residual = 6.564458e-17, No Iterations 1
DILUPBiCGStab:  Solving for ILambda_11_0, Initial residual = 0.03351442, Final residual = 9.951142e-17, No Iterations 1
DILUPBiCGStab:  Solving for ILambda_12_0, Initial residual = 0.0596524, Final residual = 0.001733708, No Iterations 4
DILUPBiCGStab:  Solving for ILambda_13_0, Initial residual = 0.05035466, Final residual = 0.002845627, No Iterations 9
DILUPBiCGStab:  Solving for ILambda_14_0, Initial residual = 0.05978963, Final residual = 0.001704187, No Iterations 12
DILUPBiCGStab:  Solving for ILambda_15_0, Initial residual = 0.06999844, Final residual = 0.00695621, No Iterations 12
Radiation solver iter: 3
DILUPBiCGStab:  Solving for ILambda_0_0, Initial residual = 0.07117538, Final residual = 1.213219e-16, No Iterations 1
DILUPBiCGStab:  Solving for ILambda_1_0, Initial residual = 0.06601355, Final residual = 7.704765e-17, No Iterations 1
DILUPBiCGStab:  Solving for ILambda_2_0, Initial residual = 0.05281026, Final residual = 4.144333e-17, No Iterations 1
DILUPBiCGStab:  Solving for ILambda_3_0, Initial residual = 0.02256339, Final residual = 1.814243e-17, No Iterations 1
DILUPBiCGStab:  Solving for ILambda_4_0, Initial residual = 0.02568619, Final residual = 0.00114397, No Iterations 2
DILUPBiCGStab:  Solving for ILambda_5_0, Initial residual = 0.0694668, Final residual = 0.00498651, No Iterations 4
DILUPBiCGStab:  Solving for ILambda_6_0, Initial residual = 0.08287231, Final residual = 0.006573741, No Iterations 5
DILUPBiCGStab:  Solving for ILambda_7_0, Initial residual = 0.0878952, Final residual = 0.005899495, No Iterations 8
DILUPBiCGStab:  Solving for ILambda_8_0, Initial residual = 0.01638389, Final residual = 2.126473e-17, No Iterations 1
DILUPBiCGStab:  Solving for ILambda_9_0, Initial residual = 0.02125455, Final residual = 3.163466e-17, No Iterations 1
DILUPBiCGStab:  Solving for ILambda_10_0, Initial residual = 0.02413167, Final residual = 4.35762e-17, No Iterations 1
DILUPBiCGStab:  Solving for ILambda_11_0, Initial residual = 0.02164382, Final residual = 5.908812e-17, No Iterations 1
DILUPBiCGStab:  Solving for ILambda_12_0, Initial residual = 0.02610715, Final residual = 0.001397755, No Iterations 4
DILUPBiCGStab:  Solving for ILambda_13_0, Initial residual = 0.03470227, Final residual = 0.002835118, No Iterations 7
DILUPBiCGStab:  Solving for ILambda_14_0, Initial residual = 0.04027829, Final residual = 0.003532067, No Iterations 11
DILUPBiCGStab:  Solving for ILambda_15_0, Initial residual = 0.04904347, Final residual = 0.00462974, No Iterations 8
Radiation solver iter: 4
DILUPBiCGStab:  Solving for ILambda_0_0, Initial residual = 0.06388427, Final residual = 9.153504e-17, No Iterations 1
DILUPBiCGStab:  Solving for ILambda_1_0, Initial residual = 0.05299702, Final residual = 4.69476e-17, No Iterations 1
DILUPBiCGStab:  Solving for ILambda_2_0, Initial residual = 0.03593281, Final residual = 2.791535e-17, No Iterations 1
DILUPBiCGStab:  Solving for ILambda_3_0, Initial residual = 0.009412385, Final residual = 7.457242e-18, No Iterations 1
DILUPBiCGStab:  Solving for ILambda_4_0, Initial residual = 0.00952591, Final residual = 0.0006141438, No Iterations 2
DILUPBiCGStab:  Solving for ILambda_5_0, Initial residual = 0.04488543, Final residual = 0.003336713, No Iterations 3
DILUPBiCGStab:  Solving for ILambda_6_0, Initial residual = 0.06993847, Final residual = 0.005725338, No Iterations 4
DILUPBiCGStab:  Solving for ILambda_7_0, Initial residual = 0.08040551, Final residual = 0.004058078, No Iterations 6
DILUPBiCGStab:  Solving for ILambda_8_0, Initial residual = 0.0140187, Final residual = 1.820253e-17, No Iterations 1
DILUPBiCGStab:  Solving for ILambda_9_0, Initial residual = 0.01817526, Final residual = 2.612983e-17, No Iterations 1
DILUPBiCGStab:  Solving for ILambda_10_0, Initial residual = 0.01836584, Final residual = 3.094278e-17, No Iterations 1
DILUPBiCGStab:  Solving for ILambda_11_0, Initial residual = 0.01420288, Final residual = 3.934922e-17, No Iterations 1
DILUPBiCGStab:  Solving for ILambda_12_0, Initial residual = 0.01637749, Final residual = 0.001238486, No Iterations 4
DILUPBiCGStab:  Solving for ILambda_13_0, Initial residual = 0.02684836, Final residual = 0.001606848, No Iterations 8
DILUPBiCGStab:  Solving for ILambda_14_0, Initial residual = 0.03517841, Final residual = 0.003239825, No Iterations 8
DILUPBiCGStab:  Solving for ILambda_15_0, Initial residual = 0.04080697, Final residual = 0.003757126, No Iterations 6
Radiation solver iter: 5
DILUPBiCGStab:  Solving for ILambda_0_0, Initial residual = 0.05843979, Final residual = 7.41728e-17, No Iterations 1
DILUPBiCGStab:  Solving for ILambda_1_0, Initial residual = 0.04380076, Final residual = 3.76196e-17, No Iterations 1
DILUPBiCGStab:  Solving for ILambda_2_0, Initial residual = 0.02486802, Final residual = 2.358871e-17, No Iterations 1
DILUPBiCGStab:  Solving for ILambda_3_0, Initial residual = 0.003682951, Final residual = 3.650678e-18, No Iterations 1
DILUPBiCGStab:  Solving for ILambda_4_0, Initial residual = 0.003622462, Final residual = 0.0002765686, No Iterations 2
DILUPBiCGStab:  Solving for ILambda_5_0, Initial residual = 0.0308171, Final residual = 0.001950331, No Iterations 4
DILUPBiCGStab:  Solving for ILambda_6_0, Initial residual = 0.06130292, Final residual = 0.00434484, No Iterations 3
DILUPBiCGStab:  Solving for ILambda_7_0, Initial residual = 0.07447819, Final residual = 0.006818675, No Iterations 4
DILUPBiCGStab:  Solving for ILambda_8_0, Initial residual = 0.01233842, Final residual = 1.374495e-17, No Iterations 1
DILUPBiCGStab:  Solving for ILambda_9_0, Initial residual = 0.01542212, Final residual = 1.906382e-17, No Iterations 1
DILUPBiCGStab:  Solving for ILambda_10_0, Initial residual = 0.01387018, Final residual = 2.237444e-17, No Iterations 1
DILUPBiCGStab:  Solving for ILambda_11_0, Initial residual = 0.009806319, Final residual = 2.799487e-17, No Iterations 1
DILUPBiCGStab:  Solving for ILambda_12_0, Initial residual = 0.01129613, Final residual = 0.0009263997, No Iterations 4
DILUPBiCGStab:  Solving for ILambda_13_0, Initial residual = 0.01995233, Final residual = 0.001208663, No Iterations 8
DILUPBiCGStab:  Solving for ILambda_14_0, Initial residual = 0.02967727, Final residual = 0.002820639, No Iterations 9
DILUPBiCGStab:  Solving for ILambda_15_0, Initial residual = 0.03575048, Final residual = 0.002687314, No Iterations 7
Radiation solver iter: 6
DILUPBiCGStab:  Solving for ILambda_0_0, Initial residual = 0.05377705, Final residual = 6.492908e-17, No Iterations 1
DILUPBiCGStab:  Solving for ILambda_1_0, Initial residual = 0.03634818, Final residual = 2.750746e-17, No Iterations 1
DILUPBiCGStab:  Solving for ILambda_2_0, Initial residual = 0.0171594, Final residual = 1.027633e-17, No Iterations 1
DILUPBiCGStab:  Solving for ILambda_3_0, Initial residual = 0.001432803, Final residual = 1.293834e-18, No Iterations 1
DILUPBiCGStab:  Solving for ILambda_4_0, Initial residual = 0.001503947, Final residual = 9.662946e-05, No Iterations 2
DILUPBiCGStab:  Solving for ILambda_5_0, Initial residual = 0.02053448, Final residual = 0.001562566, No Iterations 3
DILUPBiCGStab:  Solving for ILambda_6_0, Initial residual = 0.05306535, Final residual = 0.004292017, No Iterations 3
DILUPBiCGStab:  Solving for ILambda_7_0, Initial residual = 0.07047311, Final residual = 0.003514437, No Iterations 5
DILUPBiCGStab:  Solving for ILambda_8_0, Initial residual = 0.01085292, Final residual = 1.044438e-17, No Iterations 1
DILUPBiCGStab:  Solving for ILambda_9_0, Initial residual = 0.01285811, Final residual = 1.554245e-17, No Iterations 1
DILUPBiCGStab:  Solving for ILambda_10_0, Initial residual = 0.01064684, Final residual = 1.650051e-17, No Iterations 1
DILUPBiCGStab:  Solving for ILambda_11_0, Initial residual = 0.007265483, Final residual = 1.968705e-17, No Iterations 1
DILUPBiCGStab:  Solving for ILambda_12_0, Initial residual = 0.00823986, Final residual = 0.0005642756, No Iterations 4
DILUPBiCGStab:  Solving for ILambda_13_0, Initial residual = 0.01527876, Final residual = 0.001154297, No Iterations 7
DILUPBiCGStab:  Solving for ILambda_14_0, Initial residual = 0.02444232, Final residual = 0.001198219, No Iterations 10
DILUPBiCGStab:  Solving for ILambda_15_0, Initial residual = 0.03151979, Final residual = 0.003084485, No Iterations 5
Radiation solver iter: 7
DILUPBiCGStab:  Solving for ILambda_0_0, Initial residual = 0.04945051, Final residual = 5.625931e-17, No Iterations 1
DILUPBiCGStab:  Solving for ILambda_1_0, Initial residual = 0.03008201, Final residual = 1.992586e-17, No Iterations 1
DILUPBiCGStab:  Solving for ILambda_2_0, Initial residual = 0.01153504, Final residual = 7.633962e-18, No Iterations 1
DILUPBiCGStab:  Solving for ILambda_3_0, Initial residual = 0.0005754423, Final residual = 6.22045e-19, No Iterations 1
DILUPBiCGStab:  Solving for ILambda_4_0, Initial residual = 0.0006374936, Final residual = 7.305688e-05, No Iterations 2
DILUPBiCGStab:  Solving for ILambda_5_0, Initial residual = 0.01331488, Final residual = 0.001300019, No Iterations 2
DILUPBiCGStab:  Solving for ILambda_6_0, Initial residual = 0.04516431, Final residual = 0.00410851, No Iterations 2
DILUPBiCGStab:  Solving for ILambda_7_0, Initial residual = 0.06528545, Final residual = 0.004710587, No Iterations 3
DILUPBiCGStab:  Solving for ILambda_8_0, Initial residual = 0.009466687, Final residual = 8.232332e-18, No Iterations 1
DILUPBiCGStab:  Solving for ILambda_9_0, Initial residual = 0.01067721, Final residual = 1.124269e-17, No Iterations 1
DILUPBiCGStab:  Solving for ILambda_10_0, Initial residual = 0.008626199, Final residual = 1.329261e-17, No Iterations 1
DILUPBiCGStab:  Solving for ILambda_11_0, Initial residual = 0.005881235, Final residual = 1.580653e-17, No Iterations 1
DILUPBiCGStab:  Solving for ILambda_12_0, Initial residual = 0.006652069, Final residual = 0.0005219729, No Iterations 4
DILUPBiCGStab:  Solving for ILambda_13_0, Initial residual = 0.01233916, Final residual = 0.0006759713, No Iterations 8
DILUPBiCGStab:  Solving for ILambda_14_0, Initial residual = 0.01918145, Final residual = 0.001738017, No Iterations 7
DILUPBiCGStab:  Solving for ILambda_15_0, Initial residual = 0.02749428, Final residual = 0.001379931, No Iterations 7
Radiation solver iter: 8
DILUPBiCGStab:  Solving for ILambda_0_0, Initial residual = 0.04506987, Final residual = 4.76581e-17, No Iterations 1
DILUPBiCGStab:  Solving for ILambda_1_0, Initial residual = 0.02472062, Final residual = 1.396796e-17, No Iterations 1
DILUPBiCGStab:  Solving for ILambda_2_0, Initial residual = 0.00748432, Final residual = 3.849239e-18, No Iterations 1
DILUPBiCGStab:  Solving for ILambda_5_0, Initial residual = 0.008292043, Final residual = 0.0005198602, No Iterations 4
DILUPBiCGStab:  Solving for ILambda_6_0, Initial residual = 0.03770573, Final residual = 0.003080054, No Iterations 2
DILUPBiCGStab:  Solving for ILambda_7_0, Initial residual = 0.06050696, Final residual = 0.00470169, No Iterations 3
DILUPBiCGStab:  Solving for ILambda_8_0, Initial residual = 0.008206789, Final residual = 6.418468e-18, No Iterations 1
DILUPBiCGStab:  Solving for ILambda_9_0, Initial residual = 0.00891393, Final residual = 9.985777e-18, No Iterations 1
DILUPBiCGStab:  Solving for ILambda_10_0, Initial residual = 0.007320328, Final residual = 1.017915e-17, No Iterations 1
DILUPBiCGStab:  Solving for ILambda_11_0, Initial residual = 0.004916074, Final residual = 1.344739e-17, No Iterations 1
DILUPBiCGStab:  Solving for ILambda_12_0, Initial residual = 0.005555809, Final residual = 0.0005420603, No Iterations 4
DILUPBiCGStab:  Solving for ILambda_13_0, Initial residual = 0.01062559, Final residual = 0.001052743, No Iterations 6
DILUPBiCGStab:  Solving for ILambda_14_0, Initial residual = 0.01599048, Final residual = 0.001147453, No Iterations 7
DILUPBiCGStab:  Solving for ILambda_15_0, Initial residual = 0.02341488, Final residual = 0.001236876, No Iterations 5
Radiation solver iter: 9
DILUPBiCGStab:  Solving for ILambda_0_0, Initial residual = 0.04087094, Final residual = 3.860003e-17, No Iterations 1
DILUPBiCGStab:  Solving for ILambda_1_0, Initial residual = 0.02002427, Final residual = 1.089019e-17, No Iterations 1
DILUPBiCGStab:  Solving for ILambda_2_0, Initial residual = 0.004705073, Final residual = 3.041089e-18, No Iterations 1
DILUPBiCGStab:  Solving for ILambda_5_0, Initial residual = 0.005015077, Final residual = 0.0003505428, No Iterations 3
DILUPBiCGStab:  Solving for ILambda_6_0, Initial residual = 0.03072133, Final residual = 0.002237115, No Iterations 2
DILUPBiCGStab:  Solving for ILambda_7_0, Initial residual = 0.05562297, Final residual = 0.004325882, No Iterations 3
DILUPBiCGStab:  Solving for ILambda_8_0, Initial residual = 0.007096036, Final residual = 6.070469e-18, No Iterations 1
DILUPBiCGStab:  Solving for ILambda_9_0, Initial residual = 0.007524382, Final residual = 8.699954e-18, No Iterations 1
DILUPBiCGStab:  Solving for ILambda_10_0, Initial residual = 0.006248262, Final residual = 8.451592e-18, No Iterations 1
DILUPBiCGStab:  Solving for ILambda_11_0, Initial residual = 0.004034129, Final residual = 1.096959e-17, No Iterations 1
DILUPBiCGStab:  Solving for ILambda_12_0, Initial residual = 0.004516054, Final residual = 0.0003907189, No Iterations 4
DILUPBiCGStab:  Solving for ILambda_13_0, Initial residual = 0.009336183, Final residual = 0.000185689, No Iterations 10
DILUPBiCGStab:  Solving for ILambda_14_0, Initial residual = 0.01336353, Final residual = 0.00124617, No Iterations 8
DILUPBiCGStab:  Solving for ILambda_15_0, Initial residual = 0.02010583, Final residual = 0.00156463, No Iterations 4
Radiation solver iter: 10
DILUPBiCGStab:  Solving for ILambda_0_0, Initial residual = 0.03670488, Final residual = 3.155169e-17, No Iterations 1
DILUPBiCGStab:  Solving for ILambda_1_0, Initial residual = 0.01600246, Final residual = 1.07389e-17, No Iterations 1
DILUPBiCGStab:  Solving for ILambda_2_0, Initial residual = 0.002844634, Final residual = 1.44254e-18, No Iterations 1
DILUPBiCGStab:  Solving for ILambda_5_0, Initial residual = 0.002972341, Final residual = 0.000221096, No Iterations 3
DILUPBiCGStab:  Solving for ILambda_6_0, Initial residual = 0.02432059, Final residual = 0.001548776, No Iterations 2
DILUPBiCGStab:  Solving for ILambda_7_0, Initial residual = 0.05059635, Final residual = 0.003974886, No Iterations 3
DILUPBiCGStab:  Solving for ILambda_8_0, Initial residual = 0.006126037, Final residual = 4.74715e-18, No Iterations 1
DILUPBiCGStab:  Solving for ILambda_9_0, Initial residual = 0.006425469, Final residual = 6.07981e-18, No Iterations 1
DILUPBiCGStab:  Solving for ILambda_10_0, Initial residual = 0.005278354, Final residual = 7.093328e-18, No Iterations 1
DILUPBiCGStab:  Solving for ILambda_11_0, Initial residual = 0.003250202, Final residual = 8.576646e-18, No Iterations 1
DILUPBiCGStab:  Solving for ILambda_12_0, Initial residual = 0.003625748, Final residual = 4.094959e-05, No Iterations 5
DILUPBiCGStab:  Solving for ILambda_13_0, Initial residual = 0.007701165, Final residual = 0.0003892703, No Iterations 8
DILUPBiCGStab:  Solving for ILambda_14_0, Initial residual = 0.01145018, Final residual = 0.001048812, No Iterations 7
DILUPBiCGStab:  Solving for ILambda_15_0, Initial residual = 0.01752804, Final residual = 0.0007354167, No Iterations 5
Radiation solver iter: 11
DILUPBiCGStab:  Solving for ILambda_0_0, Initial residual = 0.03271796, Final residual = 2.833727e-17, No Iterations 1
DILUPBiCGStab:  Solving for ILambda_1_0, Initial residual = 0.01259601, Final residual = 7.429569e-18, No Iterations 1
DILUPBiCGStab:  Solving for ILambda_2_0, Initial residual = 0.001656577, Final residual = 8.209789e-19, No Iterations 1
DILUPBiCGStab:  Solving for ILambda_5_0, Initial residual = 0.00173471, Final residual = 9.640757e-05, No Iterations 3
DILUPBiCGStab:  Solving for ILambda_6_0, Initial residual = 0.01879691, Final residual = 0.001047577, No Iterations 2
DILUPBiCGStab:  Solving for ILambda_7_0, Initial residual = 0.04551054, Final residual = 0.002184953, No Iterations 4
DILUPBiCGStab:  Solving for ILambda_8_0, Initial residual = 0.005294532, Final residual = 4.131592e-18, No Iterations 1
DILUPBiCGStab:  Solving for ILambda_9_0, Initial residual = 0.005512143, Final residual = 5.403672e-18, No Iterations 1
DILUPBiCGStab:  Solving for ILambda_10_0, Initial residual = 0.004353193, Final residual = 5.843214e-18, No Iterations 1
DILUPBiCGStab:  Solving for ILambda_11_0, Initial residual = 0.002546163, Final residual = 6.543266e-18, No Iterations 1
DILUPBiCGStab:  Solving for ILambda_12_0, Initial residual = 0.002941258, Final residual = 0.000122555, No Iterations 4
DILUPBiCGStab:  Solving for ILambda_13_0, Initial residual = 0.00642068, Final residual = 0.0006394176, No Iterations 6
DILUPBiCGStab:  Solving for ILambda_14_0, Initial residual = 0.009986933, Final residual = 0.0009831841, No Iterations 4
DILUPBiCGStab:  Solving for ILambda_15_0, Initial residual = 0.01499894, Final residual = 0.001234337, No Iterations 3
Radiation solver iter: 12
DILUPBiCGStab:  Solving for ILambda_0_0, Initial residual = 0.02885798, Final residual = 2.307014e-17, No Iterations 1
DILUPBiCGStab:  Solving for ILambda_1_0, Initial residual = 0.009750677, Final residual = 4.310922e-18, No Iterations 1
DILUPBiCGStab:  Solving for ILambda_2_0, Initial residual = 0.0009433933, Final residual = 4.40457e-19, No Iterations 1
DILUPBiCGStab:  Solving for ILambda_5_0, Initial residual = 0.0009968433, Final residual = 5.174413e-05, No Iterations 3
DILUPBiCGStab:  Solving for ILambda_6_0, Initial residual = 0.01420092, Final residual = 0.001275815, No Iterations 2
DILUPBiCGStab:  Solving for ILambda_7_0, Initial residual = 0.04007707, Final residual = 0.003174259, No Iterations 2
DILUPBiCGStab:  Solving for ILambda_8_0, Initial residual = 0.004582686, Final residual = 3.040357e-18, No Iterations 1
DILUPBiCGStab:  Solving for ILambda_9_0, Initial residual = 0.004746314, Final residual = 4.236001e-18, No Iterations 1
DILUPBiCGStab:  Solving for ILambda_10_0, Initial residual = 0.003526031, Final residual = 4.779801e-18, No Iterations 1
DILUPBiCGStab:  Solving for ILambda_11_0, Initial residual = 0.001980473, Final residual = 5.088742e-18, No Iterations 1
DILUPBiCGStab:  Solving for ILambda_12_0, Initial residual = 0.002336335, Final residual = 8.608738e-05, No Iterations 4
DILUPBiCGStab:  Solving for ILambda_13_0, Initial residual = 0.005252688, Final residual = 0.0002903819, No Iterations 7
DILUPBiCGStab:  Solving for ILambda_14_0, Initial residual = 0.008696652, Final residual = 0.0005977544, No Iterations 6
DILUPBiCGStab:  Solving for ILambda_15_0, Initial residual = 0.01313539, Final residual = 0.0007938141, No Iterations 4
Radiation solver iter: 13
DILUPBiCGStab:  Solving for ILambda_0_0, Initial residual = 0.0252328, Final residual = 1.906731e-17, No Iterations 1
DILUPBiCGStab:  Solving for ILambda_1_0, Initial residual = 0.007418679, Final residual = 2.928941e-18, No Iterations 1
DILUPBiCGStab:  Solving for ILambda_6_0, Initial residual = 0.01062198, Final residual = 0.0008364175, No Iterations 2
DILUPBiCGStab:  Solving for ILambda_7_0, Initial residual = 0.03542578, Final residual = 0.003379561, No Iterations 2
DILUPBiCGStab:  Solving for ILambda_8_0, Initial residual = 0.00396391, Final residual = 3.563029e-18, No Iterations 1
DILUPBiCGStab:  Solving for ILambda_9_0, Initial residual = 0.004072927, Final residual = 3.561328e-18, No Iterations 1
DILUPBiCGStab:  Solving for ILambda_10_0, Initial residual = 0.002806352, Final residual = 3.767872e-18, No Iterations 1
DILUPBiCGStab:  Solving for ILambda_11_0, Initial residual = 0.001514073, Final residual = 4.220907e-18, No Iterations 1
DILUPBiCGStab:  Solving for ILambda_12_0, Initial residual = 0.001779719, Final residual = 6.937332e-05, No Iterations 4
DILUPBiCGStab:  Solving for ILambda_13_0, Initial residual = 0.004122637, Final residual = 0.0001396022, No Iterations 8
DILUPBiCGStab:  Solving for ILambda_14_0, Initial residual = 0.007577504, Final residual = 0.0005844996, No Iterations 6
DILUPBiCGStab:  Solving for ILambda_15_0, Initial residual = 0.0113208, Final residual = 0.001129832, No Iterations 3
Radiation solver iter: 14
DILUPBiCGStab:  Solving for ILambda_0_0, Initial residual = 0.0218543, Final residual = 1.730134e-17, No Iterations 1
DILUPBiCGStab:  Solving for ILambda_1_0, Initial residual = 0.005546065, Final residual = 2.650555e-18, No Iterations 1
DILUPBiCGStab:  Solving for ILambda_6_0, Initial residual = 0.007822831, Final residual = 0.0005491792, No Iterations 2
DILUPBiCGStab:  Solving for ILambda_7_0, Initial residual = 0.03104501, Final residual = 0.00306424, No Iterations 2
DILUPBiCGStab:  Solving for ILambda_8_0, Initial residual = 0.003433418, Final residual = 2.163873e-18, No Iterations 1
DILUPBiCGStab:  Solving for ILambda_9_0, Initial residual = 0.003479593, Final residual = 3.066003e-18, No Iterations 1
DILUPBiCGStab:  Solving for ILambda_10_0, Initial residual = 0.002221352, Final residual = 2.940193e-18, No Iterations 1
DILUPBiCGStab:  Solving for ILambda_11_0, Initial residual = 0.00117733, Final residual = 3.195307e-18, No Iterations 1
DILUPBiCGStab:  Solving for ILambda_12_0, Initial residual = 0.001373922, Final residual = 5.106661e-05, No Iterations 4
DILUPBiCGStab:  Solving for ILambda_13_0, Initial residual = 0.003203266, Final residual = 0.0002961589, No Iterations 6
DILUPBiCGStab:  Solving for ILambda_14_0, Initial residual = 0.006431792, Final residual = 0.0001747462, No Iterations 9
DILUPBiCGStab:  Solving for ILambda_15_0, Initial residual = 0.009909779, Final residual = 0.0009827187, No Iterations 3
GAMG:  Solving for p_rgh, Initial residual = 0.01940014, Final residual = 4.981066e-05, No Iterations 2
limitVelocity limitU Limited 0 (0%) of cells, with max limit 5
time step continuity errors : sum local = 0.0002303015, global = 4.088614e-17, cumulative = 2.283343e-15
rho min/max : 0.6131531 1.193501
DILUPBiCGStab:  Solving for omega, Initial residual = 0.000279743, Final residual = 8.265858e-06, No Iterations 1
DILUPBiCGStab:  Solving for k, Initial residual = 0.000500783, Final residual = 2.522708e-05, No Iterations 1
ExecutionTime = 1.13 s  ClockTime = 2 s

Time = 3505

DILUPBiCGStab:  Solving for h, Initial residual = 0.0002400406, Final residual = 1.188253e-07, No Iterations 1
limitTemperature limitT Lower limited 0 (0%) of cells, with min limit 280
limitTemperature limitT Upper limited 0 (0%) of cells, with max limit 1200
limitTemperature limitT Unlimited Tmin 415.4315
limitTemperature limitT Unlimited Tmax 499.6726
GAMG:  Solving for p_rgh, Initial residual = 0.01316085, Final residual = 4.313514e-05, No Iterations 2
limitVelocity limitU Limited 0 (0%) of cells, with max limit 5
time step continuity errors : sum local = 0.0001928126, global = 1.463341e-17, cumulative = 2.297977e-15
rho min/max : 0.5967597 0.9537
DILUPBiCGStab:  Solving for omega, Initial residual = 0.0001926577, Final residual = 6.205825e-06, No Iterations 1
DILUPBiCGStab:  Solving for k, Initial residual = 0.0005353104, Final residual = 2.804245e-05, No Iterations 1
ExecutionTime = 1.14 s  ClockTime = 2 s

Time = 3506

DILUPBiCGStab:  Solving for h, Initial residual = 0.0002191257, Final residual = 6.472456e-08, No Iterations 1
limitTemperature limitT Lower limited 0 (0%) of cells, with min limit 280
limitTemperature limitT Upper limited 0 (0%) of cells, with max limit 1200
limitTemperature limitT Unlimited Tmin 415.4457
limitTemperature limitT Unlimited Tmax 499.025
GAMG:  Solving for p_rgh, Initial residual = 0.009570941, Final residual = 3.648327e-05, No Iterations 2
limitVelocity limitU Limited 0 (0%) of cells, with max limit 5
time step continuity errors : sum local = 0.0001551037, global = 9.662418e-18, cumulative = 2.307639e-15
rho min/max : 0.5823989 0.9568599
DILUPBiCGStab:  Solving for omega, Initial residual = 0.0001687477, Final residual = 6.528023e-06, No Iterations 1
DILUPBiCGStab:  Solving for k, Initial residual = 0.000527048, Final residual = 2.763033e-05, No Iterations 1
ExecutionTime = 1.16 s  ClockTime = 2 s

Time = 3507

DILUPBiCGStab:  Solving for h, Initial residual = 0.0002610133, Final residual = 1.355579e-07, No Iterations 1
limitTemperature limitT Lower limited 0 (0%) of cells, with min limit 280
limitTemperature limitT Upper limited 0 (0%) of cells, with max limit 1200
limitTemperature limitT Unlimited Tmin 415.452
limitTemperature limitT Unlimited Tmax 498.9844
Radiation solver iter: 0
DILUPBiCGStab:  Solving for ILambda_0_0, Initial residual = 0.4845845, Final residual = 4.756658e-15, No Iterations 1
DILUPBiCGStab:  Solving for ILambda_1_0, Initial residual = 0.6649744, Final residual = 4.609354e-15, No Iterations 1
DILUPBiCGStab:  Solving for ILambda_2_0, Initial residual = 0.7451391, Final residual = 4.465274e-15, No Iterations 1
DILUPBiCGStab:  Solving for ILambda_3_0, Initial residual = 0.7964884, Final residual = 4.020985e-15, No Iterations 1
DILUPBiCGStab:  Solving for ILambda_4_0, Initial residual = 0.8082735, Final residual = 0.03540427, No Iterations 4
DILUPBiCGStab:  Solving for ILambda_5_0, Initial residual = 0.7828856, Final residual = 0.04169132, No Iterations 11
DILUPBiCGStab:  Solving for ILambda_6_0, Initial residual = 0.7303112, Final residual = 0.06118257, No Iterations 18
DILUPBiCGStab:  Solving for ILambda_7_0, Initial residual = 0.5775753, Final residual = 0.02735212, No Iterations 31
DILUPBiCGStab:  Solving for ILambda_8_0, Initial residual = 0.2756584, Final residual = 2.275393e-15, No Iterations 1
DILUPBiCGStab:  Solving for ILambda_9_0, Initial residual = 0.4575622, Final residual = 2.812911e-15, No Iterations 1
DILUPBiCGStab:  Solving for ILambda_10_0, Initial residual = 0.5959523, Final residual = 3.063503e-15, No Iterations 1
DILUPBiCGStab:  Solving for ILambda_11_0, Initial residual = 0.7058634, Final residual = 3.3585e-15, No Iterations 1
DILUPBiCGStab:  Solving for ILambda_12_0, Initial residual = 0.7462016, Final residual = 0.06199203, No Iterations 4
DILUPBiCGStab:  Solving for ILambda_13_0, Initial residual = 0.7006702, Final residual = 0.005738712, No Iterations 11
DILUPBiCGStab:  Solving for ILambda_14_0, Initial residual = 0.6299669, Final residual = 0.03278532, No Iterations 18
DILUPBiCGStab:  Solving for ILambda_15_0, Initial residual = 0.5056337, Final residual = 0.04954313, No Iterations 26
Radiation solver iter: 1
DILUPBiCGStab:  Solving for ILambda_0_0, Initial residual = 0.08047995, Final residual = 3.051235e-16, No Iterations 1
DILUPBiCGStab:  Solving for ILambda_1_0, Initial residual = 0.1031126, Final residual = 2.999369e-16, No Iterations 1
DILUPBiCGStab:  Solving for ILambda_2_0, Initial residual = 0.1266532, Final residual = 3.411704e-16, No Iterations 1
DILUPBiCGStab:  Solving for ILambda_3_0, Initial residual = 0.1207401, Final residual = 3.911818e-16, No Iterations 1
DILUPBiCGStab:  Solving for ILambda_4_0, Initial residual = 0.1962244, Final residual = 0.0001060959, No Iterations 6
DILUPBiCGStab:  Solving for ILambda_5_0, Initial residual = 0.1900509, Final residual = 0.009721341, No Iterations 10
DILUPBiCGStab:  Solving for ILambda_6_0, Initial residual = 0.1650214, Final residual = 0.003837612, No Iterations 14
DILUPBiCGStab:  Solving for ILambda_7_0, Initial residual = 0.08162157, Final residual = 0.006248958, No Iterations 19
DILUPBiCGStab:  Solving for ILambda_8_0, Initial residual = 0.04245879, Final residual = 2.027855e-16, No Iterations 1
DILUPBiCGStab:  Solving for ILambda_9_0, Initial residual = 0.06910764, Final residual = 3.148068e-16, No Iterations 1
DILUPBiCGStab:  Solving for ILambda_10_0, Initial residual = 0.103455, Final residual = 4.332633e-16, No Iterations 1
DILUPBiCGStab:  Solving for ILambda_11_0, Initial residual = 0.1446315, Final residual = 6.360335e-16, No Iterations 1
DILUPBiCGStab:  Solving for ILambda_12_0, Initial residual = 0.3108688, Final residual = 0.02278457, No Iterations 3
DILUPBiCGStab:  Solving for ILambda_13_0, Initial residual = 0.1787555, Final residual = 0.006403568, No Iterations 9
DILUPBiCGStab:  Solving for ILambda_14_0, Initial residual = 0.2213093, Final residual = 0.001499503, No Iterations 13
DILUPBiCGStab:  Solving for ILambda_15_0, Initial residual = 0.2095435, Final residual = 0.0195167, No Iterations 19
Radiation solver iter: 2
DILUPBiCGStab:  Solving for ILambda_0_0, Initial residual = 0.04620764, Final residual = 9.303221e-17, No Iterations 1
DILUPBiCGStab:  Solving for ILambda_1_0, Initial residual = 0.0565708, Final residual = 7.22709e-17, No Iterations 1
DILUPBiCGStab:  Solving for ILambda_2_0, Initial residual = 0.05811503, Final residual = 6.216324e-17, No Iterations 1
DILUPBiCGStab:  Solving for ILambda_3_0, Initial residual = 0.03810799, Final residual = 5.006065e-17, No Iterations 1
DILUPBiCGStab:  Solving for ILambda_4_0, Initial residual = 0.03518742, Final residual = 0.002833083, No Iterations 3
DILUPBiCGStab:  Solving for ILambda_5_0, Initial residual = 0.06153425, Final residual = 0.003463579, No Iterations 7
DILUPBiCGStab:  Solving for ILambda_6_0, Initial residual = 0.06130623, Final residual = 0.004962873, No Iterations 7
DILUPBiCGStab:  Solving for ILambda_7_0, Initial residual = 0.04678799, Final residual = 0.004656156, No Iterations 8
DILUPBiCGStab:  Solving for ILambda_8_0, Initial residual = 0.01659252, Final residual = 2.480104e-17, No Iterations 1
DILUPBiCGStab:  Solving for ILambda_9_0, Initial residual = 0.0228523, Final residual = 3.641701e-17, No Iterations 1
DILUPBiCGStab:  Solving for ILambda_10_0, Initial residual = 0.02924067, Final residual = 5.836846e-17, No Iterations 1
DILUPBiCGStab:  Solving for ILambda_11_0, Initial residual = 0.03345883, Final residual = 9.684582e-17, No Iterations 1
DILUPBiCGStab:  Solving for ILambda_12_0, Initial residual = 0.06264409, Final residual = 0.004207805, No Iterations 3
DILUPBiCGStab:  Solving for ILambda_13_0, Initial residual = 0.05680783, Final residual = 0.002826939, No Iterations 10
DILUPBiCGStab:  Solving for ILambda_14_0, Initial residual = 0.06203894, Final residual = 0.00523464, No Iterations 12
DILUPBiCGStab:  Solving for ILambda_15_0, Initial residual = 0.08405265, Final residual = 0.007313416, No Iterations 10
Radiation solver iter: 3
DILUPBiCGStab:  Solving for ILambda_0_0, Initial residual = 0.03551257, Final residual = 5.914752e-17, No Iterations 1
DILUPBiCGStab:  Solving for ILambda_1_0, Initial residual = 0.03879575, Final residual = 4.081385e-17, No Iterations 1
DILUPBiCGStab:  Solving for ILambda_2_0, Initial residual = 0.03314795, Final residual = 2.553014e-17, No Iterations 1
DILUPBiCGStab:  Solving for ILambda_3_0, Initial residual = 0.01441663, Final residual = 1.108648e-17, No Iterations 1
DILUPBiCGStab:  Solving for ILambda_4_0, Initial residual = 0.01211398, Final residual = 0.0007010586, No Iterations 2
DILUPBiCGStab:  Solving for ILambda_5_0, Initial residual = 0.03158746, Final residual = 0.002519047, No Iterations 4
DILUPBiCGStab:  Solving for ILambda_6_0, Initial residual = 0.04141958, Final residual = 0.00359209, No Iterations 5
DILUPBiCGStab:  Solving for ILambda_7_0, Initial residual = 0.03749388, Final residual = 0.003673839, No Iterations 7
DILUPBiCGStab:  Solving for ILambda_8_0, Initial residual = 0.01368769, Final residual = 1.685545e-17, No Iterations 1
DILUPBiCGStab:  Solving for ILambda_9_0, Initial residual = 0.01913905, Final residual = 2.703089e-17, No Iterations 1
DILUPBiCGStab:  Solving for ILambda_10_0, Initial residual = 0.02233567, Final residual = 4.228497e-17, No Iterations 1
DILUPBiCGStab:  Solving for ILambda_11_0, Initial residual = 0.02235751, Final residual = 6.382841e-17, No Iterations 1
DILUPBiCGStab:  Solving for ILambda_12_0, Initial residual = 0.02842991, Final residual = 0.001703745, No Iterations 4
DILUPBiCGStab:  Solving for ILambda_13_0, Initial residual = 0.0423272, Final residual = 0.001844757, No Iterations 9
DILUPBiCGStab:  Solving for ILambda_14_0, Initial residual = 0.04969654, Final residual = 0.004893343, No Iterations 8
DILUPBiCGStab:  Solving for ILambda_15_0, Initial residual = 0.05895267, Final residual = 0.005163318, No Iterations 8
Radiation solver iter: 4
DILUPBiCGStab:  Solving for ILambda_0_0, Initial residual = 0.02951774, Final residual = 4.388649e-17, No Iterations 1
DILUPBiCGStab:  Solving for ILambda_1_0, Initial residual = 0.02844684, Final residual = 2.638654e-17, No Iterations 1
DILUPBiCGStab:  Solving for ILambda_2_0, Initial residual = 0.02114018, Final residual = 1.495546e-17, No Iterations 1
DILUPBiCGStab:  Solving for ILambda_3_0, Initial residual = 0.006010497, Final residual = 4.54811e-18, No Iterations 1
DILUPBiCGStab:  Solving for ILambda_4_0, Initial residual = 0.004039832, Final residual = 0.0003117344, No Iterations 2
DILUPBiCGStab:  Solving for ILambda_5_0, Initial residual = 0.01854976, Final residual = 0.001409831, No Iterations 3
DILUPBiCGStab:  Solving for ILambda_6_0, Initial residual = 0.02956772, Final residual = 0.002888827, No Iterations 3
DILUPBiCGStab:  Solving for ILambda_7_0, Initial residual = 0.03180243, Final residual = 0.002600457, No Iterations 6
DILUPBiCGStab:  Solving for ILambda_8_0, Initial residual = 0.01159761, Final residual = 1.385133e-17, No Iterations 1
DILUPBiCGStab:  Solving for ILambda_9_0, Initial residual = 0.01570674, Final residual = 2.142015e-17, No Iterations 1
DILUPBiCGStab:  Solving for ILambda_10_0, Initial residual = 0.01630659, Final residual = 2.924365e-17, No Iterations 1
DILUPBiCGStab:  Solving for ILambda_11_0, Initial residual = 0.01389453, Final residual = 4.136834e-17, No Iterations 1
DILUPBiCGStab:  Solving for ILambda_12_0, Initial residual = 0.01748837, Final residual = 0.001672895, No Iterations 3
DILUPBiCGStab:  Solving for ILambda_13_0, Initial residual = 0.0302963, Final residual = 0.002161853, No Iterations 8
DILUPBiCGStab:  Solving for ILambda_14_0, Initial residual = 0.04202829, Final residual = 0.002633959, No Iterations 10
DILUPBiCGStab:  Solving for ILambda_15_0, Initial residual = 0.04813782, Final residual = 0.004654946, No Iterations 6
Radiation solver iter: 5
DILUPBiCGStab:  Solving for ILambda_0_0, Initial residual = 0.02502689, Final residual = 3.190456e-17, No Iterations 1
DILUPBiCGStab:  Solving for ILambda_1_0, Initial residual = 0.02176519, Final residual = 1.864546e-17, No Iterations 1
DILUPBiCGStab:  Solving for ILambda_2_0, Initial residual = 0.01404015, Final residual = 9.540038e-18, No Iterations 1
DILUPBiCGStab:  Solving for ILambda_3_0, Initial residual = 0.002310417, Final residual = 1.59932e-18, No Iterations 1
DILUPBiCGStab:  Solving for ILambda_4_0, Initial residual = 0.001428703, Final residual = 0.0001409271, No Iterations 2
DILUPBiCGStab:  Solving for ILambda_5_0, Initial residual = 0.01149984, Final residual = 0.0004047213, No Iterations 5
DILUPBiCGStab:  Solving for ILambda_6_0, Initial residual = 0.02305394, Final residual = 0.002136208, No Iterations 4
DILUPBiCGStab:  Solving for ILambda_7_0, Initial residual = 0.02682486, Final residual = 0.001676905, No Iterations 5
DILUPBiCGStab:  Solving for ILambda_8_0, Initial residual = 0.01011822, Final residual = 1.098418e-17, No Iterations 1
DILUPBiCGStab:  Solving for ILambda_9_0, Initial residual = 0.01284939, Final residual = 1.594403e-17, No Iterations 1
DILUPBiCGStab:  Solving for ILambda_10_0, Initial residual = 0.01191028, Final residual = 1.919222e-17, No Iterations 1
DILUPBiCGStab:  Solving for ILambda_11_0, Initial residual = 0.009211021, Final residual = 2.558371e-17, No Iterations 1
DILUPBiCGStab:  Solving for ILambda_12_0, Initial residual = 0.01264626, Final residual = 0.00122943, No Iterations 3
DILUPBiCGStab:  Solving for ILambda_13_0, Initial residual = 0.02159028, Final residual = 0.001883126, No Iterations 6
DILUPBiCGStab:  Solving for ILambda_14_0, Initial residual = 0.03322497, Final residual = 0.00322467, No Iterations 7
DILUPBiCGStab:  Solving for ILambda_15_0, Initial residual = 0.04133422, Final residual = 0.003091343, No Iterations 7
Radiation solver iter: 6
DILUPBiCGStab:  Solving for ILambda_0_0, Initial residual = 0.02158744, Final residual = 2.502071e-17, No Iterations 1
DILUPBiCGStab:  Solving for ILambda_1_0, Initial residual = 0.01694948, Final residual = 1.20719e-17, No Iterations 1
DILUPBiCGStab:  Solving for ILambda_2_0, Initial residual = 0.009421132, Final residual = 6.795621e-18, No Iterations 1
DILUPBiCGStab:  Solving for ILambda_3_0, Initial residual = 0.0008724789, Final residual = 7.631491e-19, No Iterations 1
DILUPBiCGStab:  Solving for ILambda_4_0, Initial residual = 0.0006216042, Final residual = 6.637676e-05, No Iterations 2
DILUPBiCGStab:  Solving for ILambda_5_0, Initial residual = 0.007108273, Final residual = 0.0005725848, No Iterations 3
DILUPBiCGStab:  Solving for ILambda_6_0, Initial residual = 0.01830785, Final residual = 0.0008936929, No Iterations 4
DILUPBiCGStab:  Solving for ILambda_7_0, Initial residual = 0.02303826, Final residual = 0.001772465, No Iterations 4
DILUPBiCGStab:  Solving for ILambda_8_0, Initial residual = 0.008771402, Final residual = 8.135195e-18, No Iterations 1
DILUPBiCGStab:  Solving for ILambda_9_0, Initial residual = 0.01033454, Final residual = 1.348283e-17, No Iterations 1
DILUPBiCGStab:  Solving for ILambda_10_0, Initial residual = 0.008904239, Final residual = 1.384553e-17, No Iterations 1
DILUPBiCGStab:  Solving for ILambda_11_0, Initial residual = 0.006747578, Final residual = 1.895046e-17, No Iterations 1
DILUPBiCGStab:  Solving for ILambda_12_0, Initial residual = 0.008904242, Final residual = 0.0006881565, No Iterations 4
DILUPBiCGStab:  Solving for ILambda_13_0, Initial residual = 0.01607967, Final residual = 0.001583251, No Iterations 7
DILUPBiCGStab:  Solving for ILambda_14_0, Initial residual = 0.02629427, Final residual = 0.002413962, No Iterations 8
DILUPBiCGStab:  Solving for ILambda_15_0, Initial residual = 0.03554197, Final residual = 0.002991089, No Iterations 6
Radiation solver iter: 7
DILUPBiCGStab:  Solving for ILambda_0_0, Initial residual = 0.01871037, Final residual = 1.953166e-17, No Iterations 1
DILUPBiCGStab:  Solving for ILambda_1_0, Initial residual = 0.01331115, Final residual = 8.999964e-18, No Iterations 1
DILUPBiCGStab:  Solving for ILambda_2_0, Initial residual = 0.006215352, Final residual = 3.416772e-18, No Iterations 1
DILUPBiCGStab:  Solving for ILambda_5_0, Initial residual = 0.004362099, Final residual = 0.0003509895, No Iterations 3
DILUPBiCGStab:  Solving for ILambda_6_0, Initial residual = 0.0142477, Final residual = 0.001281367, No Iterations 2
DILUPBiCGStab:  Solving for ILambda_7_0, Initial residual = 0.02019831, Final residual = 0.001393075, No Iterations 4
DILUPBiCGStab:  Solving for ILambda_8_0, Initial residual = 0.007562208, Final residual = 7.116972e-18, No Iterations 1
DILUPBiCGStab:  Solving for ILambda_9_0, Initial residual = 0.008322522, Final residual = 9.458186e-18, No Iterations 1
DILUPBiCGStab:  Solving for ILambda_10_0, Initial residual = 0.007056001, Final residual = 1.059914e-17, No Iterations 1
DILUPBiCGStab:  Solving for ILambda_11_0, Initial residual = 0.005382986, Final residual = 1.492036e-17, No Iterations 1
DILUPBiCGStab:  Solving for ILambda_12_0, Initial residual = 0.006670511, Final residual = 0.0004628221, No Iterations 4
DILUPBiCGStab:  Solving for ILambda_13_0, Initial residual = 0.01242524, Final residual = 0.0003378687, No Iterations 8
DILUPBiCGStab:  Solving for ILambda_14_0, Initial residual = 0.02071651, Final residual = 0.001633802, No Iterations 6
DILUPBiCGStab:  Solving for ILambda_15_0, Initial residual = 0.03029866, Final residual = 0.003026357, No Iterations 5
Radiation solver iter: 8
DILUPBiCGStab:  Solving for ILambda_0_0, Initial residual = 0.0161248, Final residual = 1.57278e-17, No Iterations 1
DILUPBiCGStab:  Solving for ILambda_1_0, Initial residual = 0.01048784, Final residual = 5.844474e-18, No Iterations 1
DILUPBiCGStab:  Solving for ILambda_2_0, Initial residual = 0.003989322, Final residual = 1.967214e-18, No Iterations 1
DILUPBiCGStab:  Solving for ILambda_5_0, Initial residual = 0.002606642, Final residual = 0.0001854097, No Iterations 3
DILUPBiCGStab:  Solving for ILambda_6_0, Initial residual = 0.01116666, Final residual = 0.0009596562, No Iterations 2
[...]
DILUPBiCGStab:  Solving for ILambda_2_0, Initial residual = 0.04196368, Final residual = 3.07462e-17, No Iterations 1
DILUPBiCGStab:  Solving for ILambda_3_0, Initial residual = 0.01844333, Final residual = 1.496579e-17, No Iterations 1
DILUPBiCGStab:  Solving for ILambda_4_0, Initial residual = 0.02592011, Final residual = 0.002128785, No Iterations 2
DILUPBiCGStab:  Solving for ILambda_5_0, Initial residual = 0.0760661, Final residual = 0.007006416, No Iterations 3
DILUPBiCGStab:  Solving for ILambda_6_0, Initial residual = 0.07293201, Final residual = 0.001714234, No Iterations 5
DILUPBiCGStab:  Solving for ILambda_7_0, Initial residual = 0.04294059, Final residual = 0.00401195, No Iterations 6
DILUPBiCGStab:  Solving for ILambda_8_0, Initial residual = 0.008837091, Final residual = 7.702337e-18, No Iterations 1
DILUPBiCGStab:  Solving for ILambda_9_0, Initial residual = 0.01711921, Final residual = 1.961287e-17, No Iterations 1
DILUPBiCGStab:  Solving for ILambda_10_0, Initial residual = 0.02182118, Final residual = 2.911928e-17, No Iterations 1
DILUPBiCGStab:  Solving for ILambda_11_0, Initial residual = 0.01752893, Final residual = 3.733277e-17, No Iterations 1
DILUPBiCGStab:  Solving for ILambda_12_0, Initial residual = 0.01957611, Final residual = 0.001044889, No Iterations 4
DILUPBiCGStab:  Solving for ILambda_13_0, Initial residual = 0.02833838, Final residual = 0.0008142112, No Iterations 8
DILUPBiCGStab:  Solving for ILambda_14_0, Initial residual = 0.02964321, Final residual = 0.002942992, No Iterations 7
DILUPBiCGStab:  Solving for ILambda_15_0, Initial residual = 0.02239684, Final residual = 0.001214964, No Iterations 8
Radiation solver iter: 5
DILUPBiCGStab:  Solving for ILambda_0_0, Initial residual = 0.01301594, Final residual = 1.349794e-17, No Iterations 1
DILUPBiCGStab:  Solving for ILambda_1_0, Initial residual = 0.0259405, Final residual = 1.362682e-17, No Iterations 1
DILUPBiCGStab:  Solving for ILambda_2_0, Initial residual = 0.0308092, Final residual = 2.197015e-17, No Iterations 1
DILUPBiCGStab:  Solving for ILambda_3_0, Initial residual = 0.007486071, Final residual = 4.89937e-18, No Iterations 1
DILUPBiCGStab:  Solving for ILambda_4_0, Initial residual = 0.01091182, Final residual = 0.0006906789, No Iterations 2
DILUPBiCGStab:  Solving for ILambda_5_0, Initial residual = 0.05536347, Final residual = 0.004812914, No Iterations 3
DILUPBiCGStab:  Solving for ILambda_6_0, Initial residual = 0.0611856, Final residual = 0.005671924, No Iterations 3
DILUPBiCGStab:  Solving for ILambda_7_0, Initial residual = 0.03809654, Final residual = 0.003028906, No Iterations 5
DILUPBiCGStab:  Solving for ILambda_8_0, Initial residual = 0.008105741, Final residual = 6.21188e-18, No Iterations 1
DILUPBiCGStab:  Solving for ILambda_9_0, Initial residual = 0.01592618, Final residual = 1.55209e-17, No Iterations 1
DILUPBiCGStab:  Solving for ILambda_10_0, Initial residual = 0.01816727, Final residual = 1.990321e-17, No Iterations 1
DILUPBiCGStab:  Solving for ILambda_11_0, Initial residual = 0.01332138, Final residual = 2.674331e-17, No Iterations 1
DILUPBiCGStab:  Solving for ILambda_12_0, Initial residual = 0.01484493, Final residual = 0.0005064849, No Iterations 4
DILUPBiCGStab:  Solving for ILambda_13_0, Initial residual = 0.0223321, Final residual = 0.00176698, No Iterations 7
DILUPBiCGStab:  Solving for ILambda_14_0, Initial residual = 0.02561326, Final residual = 0.001832245, No Iterations 7
DILUPBiCGStab:  Solving for ILambda_15_0, Initial residual = 0.01985102, Final residual = 0.0007793358, No Iterations 9
Radiation solver iter: 6
DILUPBiCGStab:  Solving for ILambda_0_0, Initial residual = 0.01088572, Final residual = 1.039872e-17, No Iterations 1
DILUPBiCGStab:  Solving for ILambda_1_0, Initial residual = 0.02075004, Final residual = 1.027498e-17, No Iterations 1
DILUPBiCGStab:  Solving for ILambda_2_0, Initial residual = 0.02212655, Final residual = 1.3101e-17, No Iterations 1
DILUPBiCGStab:  Solving for ILambda_3_0, Initial residual = 0.00276781, Final residual = 1.62164e-18, No Iterations 1
DILUPBiCGStab:  Solving for ILambda_4_0, Initial residual = 0.004077327, Final residual = 0.0002602013, No Iterations 2
DILUPBiCGStab:  Solving for ILambda_5_0, Initial residual = 0.03843857, Final residual = 0.003700208, No Iterations 2
DILUPBiCGStab:  Solving for ILambda_6_0, Initial residual = 0.05081025, Final residual = 0.002896412, No Iterations 4
DILUPBiCGStab:  Solving for ILambda_7_0, Initial residual = 0.03364079, Final residual = 0.003204537, No Iterations 4
DILUPBiCGStab:  Solving for ILambda_8_0, Initial residual = 0.007328833, Final residual = 6.753129e-18, No Iterations 1
DILUPBiCGStab:  Solving for ILambda_9_0, Initial residual = 0.01448987, Final residual = 1.335479e-17, No Iterations 1
DILUPBiCGStab:  Solving for ILambda_10_0, Initial residual = 0.01504029, Final residual = 1.574232e-17, No Iterations 1
DILUPBiCGStab:  Solving for ILambda_11_0, Initial residual = 0.01026648, Final residual = 1.990139e-17, No Iterations 1
DILUPBiCGStab:  Solving for ILambda_12_0, Initial residual = 0.01125401, Final residual = 0.0005605984, No Iterations 4
DILUPBiCGStab:  Solving for ILambda_13_0, Initial residual = 0.01795621, Final residual = 0.001082752, No Iterations 6
DILUPBiCGStab:  Solving for ILambda_14_0, Initial residual = 0.02110831, Final residual = 0.002006521, No Iterations 7
DILUPBiCGStab:  Solving for ILambda_15_0, Initial residual = 0.01696296, Final residual = 0.001404385, No Iterations 7
Radiation solver iter: 7
DILUPBiCGStab:  Solving for ILambda_0_0, Initial residual = 0.009294796, Final residual = 9.093311e-18, No Iterations 1
DILUPBiCGStab:  Solving for ILambda_1_0, Initial residual = 0.01668289, Final residual = 9.686758e-18, No Iterations 1
DILUPBiCGStab:  Solving for ILambda_2_0, Initial residual = 0.01549406, Final residual = 8.867288e-18, No Iterations 1
DILUPBiCGStab:  Solving for ILambda_3_0, Initial residual = 0.0009789556, Final residual = 6.232498e-19, No Iterations 1
DILUPBiCGStab:  Solving for ILambda_4_0, Initial residual = 0.001490964, Final residual = 0.0001068104, No Iterations 2
DILUPBiCGStab:  Solving for ILambda_5_0, Initial residual = 0.02541475, Final residual = 0.002156907, No Iterations 2
DILUPBiCGStab:  Solving for ILambda_6_0, Initial residual = 0.04180089, Final residual = 0.0004960462, No Iterations 5
DILUPBiCGStab:  Solving for ILambda_7_0, Initial residual = 0.0296335, Final residual = 0.001636284, No Iterations 4
DILUPBiCGStab:  Solving for ILambda_8_0, Initial residual = 0.006613924, Final residual = 4.995637e-18, No Iterations 1
DILUPBiCGStab:  Solving for ILambda_9_0, Initial residual = 0.01308151, Final residual = 1.067547e-17, No Iterations 1
DILUPBiCGStab:  Solving for ILambda_10_0, Initial residual = 0.01264063, Final residual = 1.22129e-17, No Iterations 1
DILUPBiCGStab:  Solving for ILambda_11_0, Initial residual = 0.008226291, Final residual = 1.651849e-17, No Iterations 1
DILUPBiCGStab:  Solving for ILambda_12_0, Initial residual = 0.008966308, Final residual = 0.0005699519, No Iterations 4
DILUPBiCGStab:  Solving for ILambda_13_0, Initial residual = 0.01533593, Final residual = 0.000322606, No Iterations 8
DILUPBiCGStab:  Solving for ILambda_14_0, Initial residual = 0.01796419, Final residual = 0.001242574, No Iterations 7
DILUPBiCGStab:  Solving for ILambda_15_0, Initial residual = 0.01473994, Final residual = 0.0005772504, No Iterations 8
Radiation solver iter: 8
DILUPBiCGStab:  Solving for ILambda_0_0, Initial residual = 0.007918878, Final residual = 6.98606e-18, No Iterations 1
DILUPBiCGStab:  Solving for ILambda_1_0, Initial residual = 0.01346364, Final residual = 5.722074e-18, No Iterations 1
DILUPBiCGStab:  Solving for ILambda_2_0, Initial residual = 0.01042743, Final residual = 5.561996e-18, No Iterations 1
DILUPBiCGStab:  Solving for ILambda_4_0, Initial residual = 0.0005964831, Final residual = 7.445675e-05, No Iterations 2
DILUPBiCGStab:  Solving for ILambda_5_0, Initial residual = 0.01598509, Final residual = 0.001117091, No Iterations 2
DILUPBiCGStab:  Solving for ILambda_6_0, Initial residual = 0.03368154, Final residual = 0.001816976, No Iterations 3
DILUPBiCGStab:  Solving for ILambda_7_0, Initial residual = 0.02598521, Final residual = 0.001033213, No Iterations 4
DILUPBiCGStab:  Solving for ILambda_8_0, Initial residual = 0.005909061, Final residual = 4.913976e-18, No Iterations 1
DILUPBiCGStab:  Solving for ILambda_9_0, Initial residual = 0.01152261, Final residual = 9.578676e-18, No Iterations 1
DILUPBiCGStab:  Solving for ILambda_10_0, Initial residual = 0.01060913, Final residual = 1.0144e-17, No Iterations 1
DILUPBiCGStab:  Solving for ILambda_11_0, Initial residual = 0.006667624, Final residual = 1.333607e-17, No Iterations 1
DILUPBiCGStab:  Solving for ILambda_12_0, Initial residual = 0.007308817, Final residual = 0.0005026577, No Iterations 4
DILUPBiCGStab:  Solving for ILambda_13_0, Initial residual = 0.01283078, Final residual = 0.001207825, No Iterations 6
DILUPBiCGStab:  Solving for ILambda_14_0, Initial residual = 0.01521556, Final residual = 0.001248576, No Iterations 9
DILUPBiCGStab:  Solving for ILambda_15_0, Initial residual = 0.01230278, Final residual = 0.001225079, No Iterations 7
Radiation solver iter: 9
DILUPBiCGStab:  Solving for ILambda_0_0, Initial residual = 0.006772035, Final residual = 5.794251e-18, No Iterations 1
DILUPBiCGStab:  Solving for ILambda_1_0, Initial residual = 0.01092218, Final residual = 4.74435e-18, No Iterations 1
DILUPBiCGStab:  Solving for ILambda_2_0, Initial residual = 0.006762326, Final residual = 3.039749e-18, No Iterations 1
DILUPBiCGStab:  Solving for ILambda_5_0, Initial residual = 0.009664911, Final residual = 0.0005786537, No Iterations 2
DILUPBiCGStab:  Solving for ILambda_6_0, Initial residual = 0.02708781, Final residual = 0.001061248, No Iterations 3
DILUPBiCGStab:  Solving for ILambda_7_0, Initial residual = 0.02276702, Final residual = 0.002049014, No Iterations 2
DILUPBiCGStab:  Solving for ILambda_8_0, Initial residual = 0.00519042, Final residual = 3.473894e-18, No Iterations 1
DILUPBiCGStab:  Solving for ILambda_9_0, Initial residual = 0.00996348, Final residual = 6.644601e-18, No Iterations 1
DILUPBiCGStab:  Solving for ILambda_10_0, Initial residual = 0.008802346, Final residual = 8.157586e-18, No Iterations 1
DILUPBiCGStab:  Solving for ILambda_11_0, Initial residual = 0.005316916, Final residual = 1.009351e-17, No Iterations 1
DILUPBiCGStab:  Solving for ILambda_12_0, Initial residual = 0.006016947, Final residual = 0.0003082491, No Iterations 4
DILUPBiCGStab:  Solving for ILambda_13_0, Initial residual = 0.01123917, Final residual = 0.0007312044, No Iterations 6
DILUPBiCGStab:  Solving for ILambda_14_0, Initial residual = 0.01333585, Final residual = 0.001287939, No Iterations 4
DILUPBiCGStab:  Solving for ILambda_15_0, Initial residual = 0.0105517, Final residual = 0.0008598295, No Iterations 4
Radiation solver iter: 10
DILUPBiCGStab:  Solving for ILambda_0_0, Initial residual = 0.005764748, Final residual = 5.869821e-18, No Iterations 1
DILUPBiCGStab:  Solving for ILambda_1_0, Initial residual = 0.008852809, Final residual = 3.412125e-18, No Iterations 1
DILUPBiCGStab:  Solving for ILambda_2_0, Initial residual = 0.004207453, Final residual = 1.761705e-18, No Iterations 1
DILUPBiCGStab:  Solving for ILambda_5_0, Initial residual = 0.005584508, Final residual = 0.0003097473, No Iterations 2
DILUPBiCGStab:  Solving for ILambda_6_0, Initial residual = 0.02131119, Final residual = 0.001676586, No Iterations 2
DILUPBiCGStab:  Solving for ILambda_7_0, Initial residual = 0.02007259, Final residual = 0.001543446, No Iterations 3
DILUPBiCGStab:  Solving for ILambda_8_0, Initial residual = 0.004511165, Final residual = 2.637285e-18, No Iterations 1
DILUPBiCGStab:  Solving for ILambda_9_0, Initial residual = 0.008537368, Final residual = 5.47673e-18, No Iterations 1
DILUPBiCGStab:  Solving for ILambda_10_0, Initial residual = 0.007165523, Final residual = 6.764988e-18, No Iterations 1
DILUPBiCGStab:  Solving for ILambda_11_0, Initial residual = 0.004097842, Final residual = 8.311159e-18, No Iterations 1
DILUPBiCGStab:  Solving for ILambda_12_0, Initial residual = 0.004699448, Final residual = 0.0002542038, No Iterations 4
DILUPBiCGStab:  Solving for ILambda_13_0, Initial residual = 0.009470989, Final residual = 0.0008930822, No Iterations 4
DILUPBiCGStab:  Solving for ILambda_14_0, Initial residual = 0.0117723, Final residual = 0.0008836916, No Iterations 5
DILUPBiCGStab:  Solving for ILambda_15_0, Initial residual = 0.008722609, Final residual = 0.0007958686, No Iterations 3
Radiation solver iter: 11
DILUPBiCGStab:  Solving for ILambda_0_0, Initial residual = 0.004908679, Final residual = 4.00241e-18, No Iterations 1
DILUPBiCGStab:  Solving for ILambda_1_0, Initial residual = 0.007194599, Final residual = 2.828526e-18, No Iterations 1
DILUPBiCGStab:  Solving for ILambda_2_0, Initial residual = 0.002502274, Final residual = 1.143177e-18, No Iterations 1
DILUPBiCGStab:  Solving for ILambda_5_0, Initial residual = 0.003098654, Final residual = 0.0001637634, No Iterations 2
DILUPBiCGStab:  Solving for ILambda_6_0, Initial residual = 0.01669216, Final residual = 0.001177929, No Iterations 2
DILUPBiCGStab:  Solving for ILambda_7_0, Initial residual = 0.01755556, Final residual = 0.001465851, No Iterations 3
DILUPBiCGStab:  Solving for ILambda_8_0, Initial residual = 0.003904664, Final residual = 2.521799e-18, No Iterations 1
DILUPBiCGStab:  Solving for ILambda_9_0, Initial residual = 0.007271209, Final residual = 5.263165e-18, No Iterations 1
DILUPBiCGStab:  Solving for ILambda_10_0, Initial residual = 0.005771906, Final residual = 5.402257e-18, No Iterations 1
DILUPBiCGStab:  Solving for ILambda_11_0, Initial residual = 0.00314899, Final residual = 6.316963e-18, No Iterations 1
DILUPBiCGStab:  Solving for ILambda_12_0, Initial residual = 0.003676206, Final residual = 0.0001266688, No Iterations 4
DILUPBiCGStab:  Solving for ILambda_13_0, Initial residual = 0.007982172, Final residual = 0.0003585035, No Iterations 6
DILUPBiCGStab:  Solving for ILambda_14_0, Initial residual = 0.01035049, Final residual = 0.0007106691, No Iterations 6
DILUPBiCGStab:  Solving for ILambda_15_0, Initial residual = 0.007403013, Final residual = 0.0006146815, No Iterations 4
Radiation solver iter: 12
DILUPBiCGStab:  Solving for ILambda_0_0, Initial residual = 0.004163947, Final residual = 3.120914e-18, No Iterations 1
DILUPBiCGStab:  Solving for ILambda_1_0, Initial residual = 0.005792339, Final residual = 2.311074e-18, No Iterations 1
DILUPBiCGStab:  Solving for ILambda_2_0, Initial residual = 0.001428757, Final residual = 5.211387e-19, No Iterations 1
DILUPBiCGStab:  Solving for ILambda_5_0, Initial residual = 0.001698248, Final residual = 0.0001696455, No Iterations 2
DILUPBiCGStab:  Solving for ILambda_6_0, Initial residual = 0.01287804, Final residual = 0.0007718367, No Iterations 2
DILUPBiCGStab:  Solving for ILambda_7_0, Initial residual = 0.01530846, Final residual = 0.001250171, No Iterations 3
DILUPBiCGStab:  Solving for ILambda_8_0, Initial residual = 0.003378815, Final residual = 1.836357e-18, No Iterations 1
DILUPBiCGStab:  Solving for ILambda_9_0, Initial residual = 0.006170683, Final residual = 4.097617e-18, No Iterations 1
DILUPBiCGStab:  Solving for ILambda_10_0, Initial residual = 0.004586803, Final residual = 4.240752e-18, No Iterations 1
DILUPBiCGStab:  Solving for ILambda_11_0, Initial residual = 0.002396653, Final residual = 4.703769e-18, No Iterations 1
DILUPBiCGStab:  Solving for ILambda_12_0, Initial residual = 0.002810075, Final residual = 0.0001510574, No Iterations 4
DILUPBiCGStab:  Solving for ILambda_13_0, Initial residual = 0.006499891, Final residual = 0.0005003748, No Iterations 6
DILUPBiCGStab:  Solving for ILambda_14_0, Initial residual = 0.009093051, Final residual = 0.0008315414, No Iterations 4
DILUPBiCGStab:  Solving for ILambda_15_0, Initial residual = 0.006255758, Final residual = 0.0005833343, No Iterations 3
Radiation solver iter: 13
DILUPBiCGStab:  Solving for ILambda_0_0, Initial residual = 0.003513189, Final residual = 2.6101e-18, No Iterations 1
DILUPBiCGStab:  Solving for ILambda_1_0, Initial residual = 0.004610716, Final residual = 1.907011e-18, No Iterations 1
DILUPBiCGStab:  Solving for ILambda_2_0, Initial residual = 0.0007829755, Final residual = 3.032706e-19, No Iterations 1
DILUPBiCGStab:  Solving for ILambda_5_0, Initial residual = 0.0009142535, Final residual = 5.616296e-05, No Iterations 3
DILUPBiCGStab:  Solving for ILambda_6_0, Initial residual = 0.009710606, Final residual = 0.0004594047, No Iterations 2
DILUPBiCGStab:  Solving for ILambda_7_0, Initial residual = 0.01326622, Final residual = 0.001223845, No Iterations 2
DILUPBiCGStab:  Solving for ILambda_8_0, Initial residual = 0.002917088, Final residual = 1.594544e-18, No Iterations 1
DILUPBiCGStab:  Solving for ILambda_9_0, Initial residual = 0.005213196, Final residual = 3.38707e-18, No Iterations 1
DILUPBiCGStab:  Solving for ILambda_10_0, Initial residual = 0.003621922, Final residual = 3.49242e-18, No Iterations 1
DILUPBiCGStab:  Solving for ILambda_11_0, Initial residual = 0.001851832, Final residual = 4.23242e-18, No Iterations 1
DILUPBiCGStab:  Solving for ILambda_12_0, Initial residual = 0.00216993, Final residual = 0.000168103, No Iterations 3
DILUPBiCGStab:  Solving for ILambda_13_0, Initial residual = 0.00518827, Final residual = 0.0004949822, No Iterations 4
DILUPBiCGStab:  Solving for ILambda_14_0, Initial residual = 0.007885277, Final residual = 0.0007746258, No Iterations 5
DILUPBiCGStab:  Solving for ILambda_15_0, Initial residual = 0.005323631, Final residual = 0.0004093341, No Iterations 4
Radiation solver iter: 14
DILUPBiCGStab:  Solving for ILambda_0_0, Initial residual = 0.002956007, Final residual = 2.30583e-18, No Iterations 1
DILUPBiCGStab:  Solving for ILambda_1_0, Initial residual = 0.00362164, Final residual = 1.266504e-18, No Iterations 1
DILUPBiCGStab:  Solving for ILambda_6_0, Initial residual = 0.007205878, Final residual = 0.0006328771, No Iterations 2
DILUPBiCGStab:  Solving for ILambda_7_0, Initial residual = 0.01148553, Final residual = 0.0009258884, No Iterations 3
DILUPBiCGStab:  Solving for ILambda_8_0, Initial residual = 0.002523032, Final residual = 1.514187e-18, No Iterations 1
DILUPBiCGStab:  Solving for ILambda_9_0, Initial residual = 0.004370623, Final residual = 2.960885e-18, No Iterations 1
DILUPBiCGStab:  Solving for ILambda_10_0, Initial residual = 0.002836615, Final residual = 2.710941e-18, No Iterations 1
DILUPBiCGStab:  Solving for ILambda_11_0, Initial residual = 0.001405066, Final residual = 3.076677e-18, No Iterations 1
DILUPBiCGStab:  Solving for ILambda_12_0, Initial residual = 0.001655077, Final residual = 9.293198e-05, No Iterations 4
DILUPBiCGStab:  Solving for ILambda_13_0, Initial residual = 0.004142131, Final residual = 0.0001886807, No Iterations 6
DILUPBiCGStab:  Solving for ILambda_14_0, Initial residual = 0.006697654, Final residual = 0.0005765341, No Iterations 4
DILUPBiCGStab:  Solving for ILambda_15_0, Initial residual = 0.004555521, Final residual = 0.0001474563, No Iterations 5
GAMG:  Solving for p_rgh, Initial residual = 0.0003707275, Final residual = 1.867825e-06, No Iterations 2
limitVelocity limitU Limited 0 (0%) of cells, with max limit 5
time step continuity errors : sum local = 7.09479e-06, global = -8.196864e-18, cumulative = 2.631874e-15
rho min/max : 0.556084 0.9577086
DILUPBiCGStab:  Solving for omega, Initial residual = 7.188623e-05, Final residual = 3.096409e-06, No Iterations 1
DILUPBiCGStab:  Solving for k, Initial residual = 0.0002671882, Final residual = 3.951023e-06, No Iterations 1
ExecutionTime = 67.39 s  ClockTime = 68 s

surfaceFieldValue wallT write:
    areaAverage(plate) of T = 589.4498

surfaceFieldValue wallTriser write:
    areaAverage(riser) of T = 385.1058

End

