/*---------------------------------------------------------------------------*\
| =========                 |                                                 |
| \\      /  F ield         | OpenFOAM: The Open Source CFD Toolbox           |
|  \\    /   O peration     | Version:  2312                                  |
|   \\  /    A nd           | Website:  www.openfoam.com                      |
|    \\/     M anipulation  |                                                 |
\*---------------------------------------------------------------------------*/
Build  : _c39a0f64-20231220 OPENFOAM=2312 version=2312
Arch   : "LSB;label=32;scalar=64"
Exec   : buoyantSimpleFoam
Date   : Jul 02 2026
Time   : 08:44:10
Host   : 159331f50239
PID    : 232
I/O    : uncollated
Case   : /case
nProcs : 1
trapFpe: Floating point exception trapping enabled (FOAM_SIGFPE).
fileModificationChecking : Monitoring run-time modified files using timeStampMaster (fileModificationSkew 5, maxFileModificationPolls 20)
allowSystemOperations : Allowing user-supplied system call operations

// * * * * * * * * * * * * * * * * * * * * * * * * * * * * * * * * * * * * * //
Create time

Create mesh for time = 3500


SIMPLE: convergence criteria
    field p_rgh	 tolerance 1e-07
    field U	 tolerance 1e-07
    field h	 tolerance 1e-07
    field "(k|omega)"	 tolerance 0.001

Reading thermophysical properties

Selecting thermodynamics package 
{
    type            heRhoThermo;
    mixture         pureMixture;
    transport       const;
    thermo          hConst;
    equationOfState perfectGas;
    specie          specie;
    energy          sensibleEnthalpy;
}

Reading field U

Reading/calculating face flux field phi

Creating turbulence model

Selecting turbulence model type RAS
Selecting RAS turbulence model kOmegaSST
Selecting patchDistMethod meshWave
RAS
{
    RASModel        kOmegaSST;
    turbulence      on;
    printCoeffs     on;
    alphaK1         0.85;
    alphaK2         1;
    alphaOmega1     0.5;
    alphaOmega2     0.856;
    gamma1          0.5555556;
    gamma2          0.44;
    beta1           0.075;
    beta2           0.0828;
    betaStar        0.09;
    a1              0.31;
    b1              1;
    c1              10;
    F3              false;
    decayControl    false;
    kInf            0;
    omegaInf        0;
}


Reading g

Reading hRef
Calculating field g.h

Reading field p_rgh

No MRF models present

Selecting radiationModel fvDOM
Selecting absorptionEmissionModel constantAbsorptionEmission
Selecting scatterModel none
Selecting sootModel none
fvDOM : Allocated 16 rays with average orientation:
	I0 : dAve : 	(0.1195698 0.6011177 2.944771e-33) : omega : 	0.7853982 : d : 	(0.1950903 0.9807853 6.123234e-17)
	I1 : dAve : 	(0.3405058 0.509603 2.944771e-33) : omega : 	0.7853982 : d : 	(0.5555702 0.8314696 6.123234e-17)
	I2 : dAve : 	(0.509603 0.3405058 2.944771e-33) : omega : 	0.7853982 : d : 	(0.8314696 0.5555702 6.123234e-17)
	I3 : dAve : 	(0.6011177 0.1195698 2.944771e-33) : omega : 	0.7853982 : d : 	(0.9807853 0.1950903 6.123234e-17)
	I4 : dAve : 	(0.6011177 -0.1195698 2.944771e-33) : omega : 	0.7853982 : d : 	(0.9807853 -0.1950903 6.123234e-17)
	I5 : dAve : 	(0.509603 -0.3405058 2.944771e-33) : omega : 	0.7853982 : d : 	(0.8314696 -0.5555702 6.123234e-17)
	I6 : dAve : 	(0.3405058 -0.509603 2.944771e-33) : omega : 	0.7853982 : d : 	(0.5555702 -0.8314696 6.123234e-17)
	I7 : dAve : 	(0.1195698 -0.6011177 2.944771e-33) : omega : 	0.7853982 : d : 	(0.1950903 -0.9807853 6.123234e-17)
	I8 : dAve : 	(-0.1195698 -0.6011177 2.944771e-33) : omega : 	0.7853982 : d : 	(-0.1950903 -0.9807853 6.123234e-17)
	I9 : dAve : 	(-0.3405058 -0.509603 2.944771e-33) : omega : 	0.7853982 : d : 	(-0.5555702 -0.8314696 6.123234e-17)
	I10 : dAve : 	(-0.509603 -0.3405058 2.944771e-33) : omega : 	0.7853982 : d : 	(-0.8314696 -0.5555702 6.123234e-17)
	I11 : dAve : 	(-0.6011177 -0.1195698 2.944771e-33) : omega : 	0.7853982 : d : 	(-0.9807853 -0.1950903 6.123234e-17)
	I12 : dAve : 	(-0.6011177 0.1195698 2.944771e-33) : omega : 	0.7853982 : d : 	(-0.9807853 0.1950903 6.123234e-17)
	I13 : dAve : 	(-0.509603 0.3405058 2.944771e-33) : omega : 	0.7853982 : d : 	(-0.8314696 0.5555702 6.123234e-17)
	I14 : dAve : 	(-0.3405058 0.509603 2.944771e-33) : omega : 	0.7853982 : d : 	(-0.5555702 0.8314696 6.123234e-17)
	I15 : dAve : 	(-0.1195698 0.6011177 2.944771e-33) : omega : 	0.7853982 : d : 	(-0.1950903 0.9807853 6.123234e-17)
Total omega : 12.56637

Creating finite volume options from "system/fvOptions"

Selecting finite volume options type limitTemperature
    Source: limitT
    - selecting all cells
    - selected 12000 cell(s) with volume 0.473422
Selecting finite volume options type limitVelocity
    Source: limitU
    - selecting all cells
    - selected 12000 cell(s) with volume 0.473422

Starting time loop

surfaceFieldValue wallT:
    operation     = areaAverage


surfaceFieldValue wallTriser:
    operation     = areaAverage


Time = 3501

DILUPBiCGStab:  Solving for h, Initial residual = 0.0004569354, Final residual = 1.561814e-07, No Iterations 1
limitTemperature limitT Lower limited 0 (0%) of cells, with min limit 280
limitTemperature limitT Upper limited 0 (0%) of cells, with max limit 1200
limitTemperature limitT Unlimited Tmin 415.3665
limitTemperature limitT Unlimited Tmax 500.8666
Radiation solver iter: 0
Selecting boundary radiation Model: lookup
Selecting boundary radiation Model: lookup
Selecting boundary radiation Model: lookup
DILUPBiCGStab:  Solving for ILambda_0_0, Initial residual = 0.5813308, Final residual = 5.707639e-15, No Iterations 1
DILUPBiCGStab:  Solving for ILambda_1_0, Initial residual = 0.7777985, Final residual = 5.597311e-15, No Iterations 1
DILUPBiCGStab:  Solving for ILambda_2_0, Initial residual = 0.8669846, Final residual = 5.245122e-15, No Iterations 1
DILUPBiCGStab:  Solving for ILambda_3_0, Initial residual = 0.925495, Final residual = 4.994643e-15, No Iterations 1
DILUPBiCGStab:  Solving for ILambda_4_0, Initial residual = 0.9336696, Final residual = 0.07068638, No Iterations 5
DILUPBiCGStab:  Solving for ILambda_5_0, Initial residual = 0.8930054, Final residual = 0.0002407488, No Iterations 14
DILUPBiCGStab:  Solving for ILambda_6_0, Initial residual = 0.8256961, Final residual = 0.06853223, No Iterations 20
DILUPBiCGStab:  Solving for ILambda_7_0, Initial residual = 0.6638097, Final residual = 0.01618521, No Iterations 35
DILUPBiCGStab:  Solving for ILambda_8_0, Initial residual = 0.5692391, Final residual = 5.074383e-15, No Iterations 1
DILUPBiCGStab:  Solving for ILambda_9_0, Initial residual = 0.745521, Final residual = 4.803118e-15, No Iterations 1
DILUPBiCGStab:  Solving for ILambda_10_0, Initial residual = 0.8497755, Final residual = 4.187872e-15, No Iterations 1
DILUPBiCGStab:  Solving for ILambda_11_0, Initial residual = 0.9142447, Final residual = 4.157188e-15, No Iterations 1
DILUPBiCGStab:  Solving for ILambda_12_0, Initial residual = 0.9332304, Final residual = 0.005940265, No Iterations 5
DILUPBiCGStab:  Solving for ILambda_13_0, Initial residual = 0.9096363, Final residual = 0.00143694, No Iterations 12
DILUPBiCGStab:  Solving for ILambda_14_0, Initial residual = 0.8712991, Final residual = 0.04628654, No Iterations 16
DILUPBiCGStab:  Solving for ILambda_15_0, Initial residual = 0.7917743, Final residual = 0.05146115, No Iterations 30
Radiation solver iter: 1
DILUPBiCGStab:  Solving for ILambda_0_0, Initial residual = 0.0677002, Final residual = 3.079386e-16, No Iterations 1
DILUPBiCGStab:  Solving for ILambda_1_0, Initial residual = 0.08825708, Final residual = 3.258758e-16, No Iterations 1
DILUPBiCGStab:  Solving for ILambda_2_0, Initial residual = 0.1139796, Final residual = 4.144354e-16, No Iterations 1
DILUPBiCGStab:  Solving for ILambda_3_0, Initial residual = 0.1272986, Final residual = 4.906942e-16, No Iterations 1
DILUPBiCGStab:  Solving for ILambda_4_0, Initial residual = 0.3013566, Final residual = 0.022727, No Iterations 3
DILUPBiCGStab:  Solving for ILambda_5_0, Initial residual = 0.1162596, Final residual = 0.007220783, No Iterations 9
DILUPBiCGStab:  Solving for ILambda_6_0, Initial residual = 0.1665402, Final residual = 0.006288734, No Iterations 13
DILUPBiCGStab:  Solving for ILambda_7_0, Initial residual = 0.06165546, Final residual = 0.004121667, No Iterations 22
DILUPBiCGStab:  Solving for ILambda_8_0, Initial residual = 0.1049407, Final residual = 4.795693e-16, No Iterations 1
DILUPBiCGStab:  Solving for ILambda_9_0, Initial residual = 0.1085098, Final residual = 4.481975e-16, No Iterations 1
DILUPBiCGStab:  Solving for ILambda_10_0, Initial residual = 0.1124351, Final residual = 4.488215e-16, No Iterations 1
DILUPBiCGStab:  Solving for ILambda_11_0, Initial residual = 0.1060816, Final residual = 4.352963e-16, No Iterations 1
DILUPBiCGStab:  Solving for ILambda_12_0, Initial residual = 0.116065, Final residual = 0.01131924, No Iterations 3
DILUPBiCGStab:  Solving for ILambda_13_0, Initial residual = 0.09846131, Final residual = 0.001215999, No Iterations 10
DILUPBiCGStab:  Solving for ILambda_14_0, Initial residual = 0.1551325, Final residual = 0.01181384, No Iterations 10
DILUPBiCGStab:  Solving for ILambda_15_0, Initial residual = 0.1252727, Final residual = 0.010016, No Iterations 18
Radiation solver iter: 2
DILUPBiCGStab:  Solving for ILambda_0_0, Initial residual = 0.03310367, Final residual = 7.338903e-17, No Iterations 1
DILUPBiCGStab:  Solving for ILambda_1_0, Initial residual = 0.0390319, Final residual = 5.451205e-17, No Iterations 1
DILUPBiCGStab:  Solving for ILambda_2_0, Initial residual = 0.0422037, Final residual = 4.625502e-17, No Iterations 1
DILUPBiCGStab:  Solving for ILambda_3_0, Initial residual = 0.02964418, Final residual = 3.789118e-17, No Iterations 1
DILUPBiCGStab:  Solving for ILambda_4_0, Initial residual = 0.04445093, Final residual = 0.002937823, No Iterations 3
DILUPBiCGStab:  Solving for ILambda_5_0, Initial residual = 0.04770576, Final residual = 0.001141911, No Iterations 7
DILUPBiCGStab:  Solving for ILambda_6_0, Initial residual = 0.04960674, Final residual = 0.001584253, No Iterations 9
DILUPBiCGStab:  Solving for ILambda_7_0, Initial residual = 0.03476322, Final residual = 0.003441095, No Iterations 9
DILUPBiCGStab:  Solving for ILambda_8_0, Initial residual = 0.0454661, Final residual = 9.002019e-17, No Iterations 1
DILUPBiCGStab:  Solving for ILambda_9_0, Initial residual = 0.04825048, Final residual = 9.584724e-17, No Iterations 1
DILUPBiCGStab:  Solving for ILambda_10_0, Initial residual = 0.04690581, Final residual = 1.081038e-16, No Iterations 1
DILUPBiCGStab:  Solving for ILambda_11_0, Initial residual = 0.03725676, Final residual = 1.154394e-16, No Iterations 1
DILUPBiCGStab:  Solving for ILambda_12_0, Initial residual = 0.04290897, Final residual = 0.0005452549, No Iterations 5
DILUPBiCGStab:  Solving for ILambda_13_0, Initial residual = 0.04188546, Final residual = 0.003414555, No Iterations 9
DILUPBiCGStab:  Solving for ILambda_14_0, Initial residual = 0.05099721, Final residual = 0.002471199, No Iterations 14
DILUPBiCGStab:  Solving for ILambda_15_0, Initial residual = 0.0494843, Final residual = 0.002877665, No Iterations 17
Radiation solver iter: 3
DILUPBiCGStab:  Solving for ILambda_0_0, Initial residual = 0.02580547, Final residual = 4.467847e-17, No Iterations 1
DILUPBiCGStab:  Solving for ILambda_1_0, Initial residual = 0.02742784, Final residual = 2.911131e-17, No Iterations 1
DILUPBiCGStab:  Solving for ILambda_2_0, Initial residual = 0.02482333, Final residual = 1.97488e-17, No Iterations 1
DILUPBiCGStab:  Solving for ILambda_3_0, Initial residual = 0.01153399, Final residual = 1.028101e-17, No Iterations 1
DILUPBiCGStab:  Solving for ILambda_4_0, Initial residual = 0.01358484, Final residual = 0.0006664449, No Iterations 2
DILUPBiCGStab:  Solving for ILambda_5_0, Initial residual = 0.02846838, Final residual = 0.001545683, No Iterations 5
DILUPBiCGStab:  Solving for ILambda_6_0, Initial residual = 0.03317445, Final residual = 0.00310125, No Iterations 5
DILUPBiCGStab:  Solving for ILambda_7_0, Initial residual = 0.02842636, Final residual = 0.002660814, No Iterations 6
DILUPBiCGStab:  Solving for ILambda_8_0, Initial residual = 0.03615097, Final residual = 5.236204e-17, No Iterations 1
DILUPBiCGStab:  Solving for ILambda_9_0, Initial residual = 0.03734483, Final residual = 5.391227e-17, No Iterations 1
DILUPBiCGStab:  Solving for ILambda_10_0, Initial residual = 0.03240877, Final residual = 5.762646e-17, No Iterations 1
DILUPBiCGStab:  Solving for ILambda_11_0, Initial residual = 0.02155241, Final residual = 6.028776e-17, No Iterations 1
DILUPBiCGStab:  Solving for ILambda_12_0, Initial residual = 0.0206993, Final residual = 0.001098378, No Iterations 4
DILUPBiCGStab:  Solving for ILambda_13_0, Initial residual = 0.02980293, Final residual = 0.00253839, No Iterations 7
DILUPBiCGStab:  Solving for ILambda_14_0, Initial residual = 0.03279809, Final residual = 0.002420307, No Iterations 9
DILUPBiCGStab:  Solving for ILambda_15_0, Initial residual = 0.03304104, Final residual = 0.003264719, No Iterations 7
Radiation solver iter: 4
DILUPBiCGStab:  Solving for ILambda_0_0, Initial residual = 0.02136433, Final residual = 3.20529e-17, No Iterations 1
DILUPBiCGStab:  Solving for ILambda_1_0, Initial residual = 0.02061176, Final residual = 1.993912e-17, No Iterations 1
DILUPBiCGStab:  Solving for ILambda_2_0, Initial residual = 0.01583832, Final residual = 1.195185e-17, No Iterations 1
DILUPBiCGStab:  Solving for ILambda_3_0, Initial residual = 0.004652678, Final residual = 3.561789e-18, No Iterations 1
DILUPBiCGStab:  Solving for ILambda_4_0, Initial residual = 0.004668928, Final residual = 0.00034786, No Iterations 2
DILUPBiCGStab:  Solving for ILambda_5_0, Initial residual = 0.01851835, Final residual = 0.0002529194, No Iterations 6
DILUPBiCGStab:  Solving for ILambda_6_0, Initial residual = 0.02575268, Final residual = 0.002182381, No Iterations 4
DILUPBiCGStab:  Solving for ILambda_7_0, Initial residual = 0.02399965, Final residual = 0.001692316, No Iterations 6
DILUPBiCGStab:  Solving for ILambda_8_0, Initial residual = 0.03032795, Final residual = 3.624568e-17, No Iterations 1
DILUPBiCGStab:  Solving for ILambda_9_0, Initial residual = 0.03062384, Final residual = 3.967072e-17, No Iterations 1
DILUPBiCGStab:  Solving for ILambda_10_0, Initial residual = 0.02348527, Final residual = 3.989271e-17, No Iterations 1
DILUPBiCGStab:  Solving for ILambda_11_0, Initial residual = 0.01357979, Final residual = 3.8796e-17, No Iterations 1
DILUPBiCGStab:  Solving for ILambda_12_0, Initial residual = 0.01348934, Final residual = 0.000715695, No Iterations 4
DILUPBiCGStab:  Solving for ILambda_13_0, Initial residual = 0.02165659, Final residual = 0.001958226, No Iterations 7
DILUPBiCGStab:  Solving for ILambda_14_0, Initial residual = 0.02730937, Final residual = 0.0006359715, No Iterations 12
DILUPBiCGStab:  Solving for ILambda_15_0, Initial residual = 0.0272759, Final residual = 0.002586713, No Iterations 9
Radiation solver iter: 5
DILUPBiCGStab:  Solving for ILambda_0_0, Initial residual = 0.01827588, Final residual = 2.33283e-17, No Iterations 1
DILUPBiCGStab:  Solving for ILambda_1_0, Initial residual = 0.01608663, Final residual = 1.494727e-17, No Iterations 1
DILUPBiCGStab:  Solving for ILambda_2_0, Initial residual = 0.01054748, Final residual = 6.977556e-18, No Iterations 1
DILUPBiCGStab:  Solving for ILambda_3_0, Initial residual = 0.001817413, Final residual = 1.175892e-18, No Iterations 1
DILUPBiCGStab:  Solving for ILambda_4_0, Initial residual = 0.001735665, Final residual = 0.0001521579, No Iterations 2
DILUPBiCGStab:  Solving for ILambda_5_0, Initial residual = 0.0124795, Final residual = 0.0008680491, No Iterations 4
DILUPBiCGStab:  Solving for ILambda_6_0, Initial residual = 0.02066648, Final residual = 0.001892282, No Iterations 3
DILUPBiCGStab:  Solving for ILambda_7_0, Initial residual = 0.02065343, Final residual = 0.0009231492, No Iterations 6
DILUPBiCGStab:  Solving for ILambda_8_0, Initial residual = 0.02622038, Final residual = 3.020777e-17, No Iterations 1
DILUPBiCGStab:  Solving for ILambda_9_0, Initial residual = 0.02510677, Final residual = 3.530697e-17, No Iterations 1
DILUPBiCGStab:  Solving for ILambda_10_0, Initial residual = 0.01695562, Final residual = 2.785142e-17, No Iterations 1
DILUPBiCGStab:  Solving for ILambda_11_0, Initial residual = 0.009050242, Final residual = 2.433387e-17, No Iterations 1
DILUPBiCGStab:  Solving for ILambda_12_0, Initial residual = 0.008547714, Final residual = 0.0008337841, No Iterations 3
DILUPBiCGStab:  Solving for ILambda_13_0, Initial residual = 0.01508532, Final residual = 0.001365587, No Iterations 6
DILUPBiCGStab:  Solving for ILambda_14_0, Initial residual = 0.02133685, Final residual = 0.001986568, No Iterations 7
DILUPBiCGStab:  Solving for ILambda_15_0, Initial residual = 0.02352081, Final residual = 0.002006171, No Iterations 6
Radiation solver iter: 6
DILUPBiCGStab:  Solving for ILambda_0_0, Initial residual = 0.01579032, Final residual = 1.992504e-17, No Iterations 1
DILUPBiCGStab:  Solving for ILambda_1_0, Initial residual = 0.01269234, Final residual = 9.937558e-18, No Iterations 1
DILUPBiCGStab:  Solving for ILambda_2_0, Initial residual = 0.007074841, Final residual = 4.586966e-18, No Iterations 1
DILUPBiCGStab:  Solving for ILambda_3_0, Initial residual = 0.0007138311, Final residual = 7.332679e-19, No Iterations 1
DILUPBiCGStab:  Solving for ILambda_4_0, Initial residual = 0.0007290137, Final residual = 8.436503e-05, No Iterations 2
DILUPBiCGStab:  Solving for ILambda_5_0, Initial residual = 0.008353027, Final residual = 0.0006679087, No Iterations 3
DILUPBiCGStab:  Solving for ILambda_6_0, Initial residual = 0.01665959, Final residual = 0.001204979, No Iterations 3
DILUPBiCGStab:  Solving for ILambda_7_0, Initial residual = 0.01775839, Final residual = 0.001250787, No Iterations 4
DILUPBiCGStab:  Solving for ILambda_8_0, Initial residual = 0.02278442, Final residual = 2.389458e-17, No Iterations 1
DILUPBiCGStab:  Solving for ILambda_9_0, Initial residual = 0.02025413, Final residual = 2.320394e-17, No Iterations 1
DILUPBiCGStab:  Solving for ILambda_10_0, Initial residual = 0.01259241, Final residual = 1.935821e-17, No Iterations 1
DILUPBiCGStab:  Solving for ILambda_11_0, Initial residual = 0.006713428, Final residual = 1.794389e-17, No Iterations 1
DILUPBiCGStab:  Solving for ILambda_12_0, Initial residual = 0.006525445, Final residual = 0.0005508829, No Iterations 4
DILUPBiCGStab:  Solving for ILambda_13_0, Initial residual = 0.01126513, Final residual = 0.0004450729, No Iterations 8
DILUPBiCGStab:  Solving for ILambda_14_0, Initial residual = 0.01708519, Final residual = 0.000753222, No Iterations 9
DILUPBiCGStab:  Solving for ILambda_15_0, Initial residual = 0.01993153, Final residual = 0.00175521, No Iterations 5
Radiation solver iter: 7
DILUPBiCGStab:  Solving for ILambda_0_0, Initial residual = 0.01365732, Final residual = 1.439525e-17, No Iterations 1
DILUPBiCGStab:  Solving for ILambda_1_0, Initial residual = 0.01004908, Final residual = 6.420152e-18, No Iterations 1
DILUPBiCGStab:  Solving for ILambda_2_0, Initial residual = 0.004670751, Final residual = 3.347092e-18, No Iterations 1
DILUPBiCGStab:  Solving for ILambda_5_0, Initial residual = 0.005485187, Final residual = 0.0004369301, No Iterations 3
DILUPBiCGStab:  Solving for ILambda_6_0, Initial residual = 0.0133515, Final residual = 0.001243153, No Iterations 2
DILUPBiCGStab:  Solving for ILambda_7_0, Initial residual = 0.0155232, Final residual = 0.0009239824, No Iterations 4
DILUPBiCGStab:  Solving for ILambda_8_0, Initial residual = 0.01972531, Final residual = 1.884751e-17, No Iterations 1
DILUPBiCGStab:  Solving for ILambda_9_0, Initial residual = 0.01627927, Final residual = 1.76662e-17, No Iterations 1
DILUPBiCGStab:  Solving for ILambda_10_0, Initial residual = 0.009970697, Final residual = 1.379065e-17, No Iterations 1
DILUPBiCGStab:  Solving for ILambda_11_0, Initial residual = 0.005427977, Final residual = 1.498677e-17, No Iterations 1
DILUPBiCGStab:  Solving for ILambda_12_0, Initial residual = 0.005065899, Final residual = 0.0002854407, No Iterations 4
DILUPBiCGStab:  Solving for ILambda_13_0, Initial residual = 0.008653864, Final residual = 0.0006928339, No Iterations 7
DILUPBiCGStab:  Solving for ILambda_14_0, Initial residual = 0.01328646, Final residual = 0.001229798, No Iterations 5
DILUPBiCGStab:  Solving for ILambda_15_0, Initial residual = 0.01684314, Final residual = 0.001511897, No Iterations 5
Radiation solver iter: 8
DILUPBiCGStab:  Solving for ILambda_0_0, Initial residual = 0.01178685, Final residual = 1.247301e-17, No Iterations 1
DILUPBiCGStab:  Solving for ILambda_1_0, Initial residual = 0.007951465, Final residual = 4.829988e-18, No Iterations 1
DILUPBiCGStab:  Solving for ILambda_2_0, Initial residual = 0.002995478, Final residual = 1.709472e-18, No Iterations 1
DILUPBiCGStab:  Solving for ILambda_5_0, Initial residual = 0.003464124, Final residual = 0.0002725453, No Iterations 3
DILUPBiCGStab:  Solving for ILambda_6_0, Initial residual = 0.01072003, Final residual = 0.0008970116, No Iterations 2
DILUPBiCGStab:  Solving for ILambda_7_0, Initial residual = 0.01350448, Final residual = 0.001235353, No Iterations 3
DILUPBiCGStab:  Solving for ILambda_8_0, Initial residual = 0.01697088, Final residual = 1.506678e-17, No Iterations 1
DILUPBiCGStab:  Solving for ILambda_9_0, Initial residual = 0.01322251, Final residual = 1.291749e-17, No Iterations 1
DILUPBiCGStab:  Solving for ILambda_10_0, Initial residual = 0.008390644, Final residual = 1.119985e-17, No Iterations 1
DILUPBiCGStab:  Solving for ILambda_11_0, Initial residual = 0.004586212, Final residual = 1.192964e-17, No Iterations 1
DILUPBiCGStab:  Solving for ILambda_12_0, Initial residual = 0.004211829, Final residual = 3.323056e-05, No Iterations 5
DILUPBiCGStab:  Solving for ILambda_13_0, Initial residual = 0.007257245, Final residual = 0.0006414767, No Iterations 6
DILUPBiCGStab:  Solving for ILambda_14_0, Initial residual = 0.01066974, Final residual = 0.000953776, No Iterations 6
DILUPBiCGStab:  Solving for ILambda_15_0, Initial residual = 0.01435004, Final residual = 0.0008900892, No Iterations 6
Radiation solver iter: 9
DILUPBiCGStab:  Solving for ILambda_0_0, Initial residual = 0.01016884, Final residual = 9.616405e-18, No Iterations 1
DILUPBiCGStab:  Solving for ILambda_1_0, Initial residual = 0.006244282, Final residual = 3.987765e-18, No Iterations 1
DILUPBiCGStab:  Solving for ILambda_2_0, Initial residual = 0.001869976, Final residual = 9.852104e-19, No Iterations 1
DILUPBiCGStab:  Solving for ILambda_5_0, Initial residual = 0.002114967, Final residual = 0.0001684783, No Iterations 3
DILUPBiCGStab:  Solving for ILambda_6_0, Initial residual = 0.008434742, Final residual = 0.0006298397, No Iterations 2
DILUPBiCGStab:  Solving for ILambda_7_0, Initial residual = 0.01180743, Final residual = 0.0006391647, No Iterations 4
DILUPBiCGStab:  Solving for ILambda_8_0, Initial residual = 0.01459502, Final residual = 1.093653e-17, No Iterations 1
DILUPBiCGStab:  Solving for ILambda_9_0, Initial residual = 0.01090611, Final residual = 1.026143e-17, No Iterations 1
DILUPBiCGStab:  Solving for ILambda_10_0, Initial residual = 0.007114385, Final residual = 9.828137e-18, No Iterations 1
DILUPBiCGStab:  Solving for ILambda_11_0, Initial residual = 0.003767412, Final residual = 9.982912e-18, No Iterations 1
DILUPBiCGStab:  Solving for ILambda_12_0, Initial residual = 0.003529469, Final residual = 0.0001957748, No Iterations 4
DILUPBiCGStab:  Solving for ILambda_13_0, Initial residual = 0.006381372, Final residual = 0.0002543416, No Iterations 8
DILUPBiCGStab:  Solving for ILambda_14_0, Initial residual = 0.008831132, Final residual = 0.0002972919, No Iterations 8
DILUPBiCGStab:  Solving for ILambda_15_0, Initial residual = 0.01204069, Final residual = 0.001143719, No Iterations 4
Radiation solver iter: 10
DILUPBiCGStab:  Solving for ILambda_0_0, Initial residual = 0.008726745, Final residual = 8.140425e-18, No Iterations 1
DILUPBiCGStab:  Solving for ILambda_1_0, Initial residual = 0.004868019, Final residual = 2.828234e-18, No Iterations 1
DILUPBiCGStab:  Solving for ILambda_2_0, Initial residual = 0.001126836, Final residual = 6.867392e-19, No Iterations 1
DILUPBiCGStab:  Solving for ILambda_5_0, Initial residual = 0.001245786, Final residual = 0.000101422, No Iterations 3
DILUPBiCGStab:  Solving for ILambda_6_0, Initial residual = 0.006519184, Final residual = 0.0004194906, No Iterations 2
DILUPBiCGStab:  Solving for ILambda_7_0, Initial residual = 0.01013348, Final residual = 0.0008293885, No Iterations 3
DILUPBiCGStab:  Solving for ILambda_8_0, Initial residual = 0.01253406, Final residual = 9.701676e-18, No Iterations 1
DILUPBiCGStab:  Solving for ILambda_9_0, Initial residual = 0.009119492, Final residual = 8.408848e-18, No Iterations 1
DILUPBiCGStab:  Solving for ILambda_10_0, Initial residual = 0.00598776, Final residual = 8.10832e-18, No Iterations 1
DILUPBiCGStab:  Solving for ILambda_11_0, Initial residual = 0.003055327, Final residual = 8.014545e-18, No Iterations 1
DILUPBiCGStab:  Solving for ILambda_12_0, Initial residual = 0.002945116, Final residual = 0.0001230028, No Iterations 4
DILUPBiCGStab:  Solving for ILambda_13_0, Initial residual = 0.005295188, Final residual = 0.000496481, No Iterations 6
DILUPBiCGStab:  Solving for ILambda_14_0, Initial residual = 0.007269049, Final residual = 0.0005876763, No Iterations 9
DILUPBiCGStab:  Solving for ILambda_15_0, Initial residual = 0.01034741, Final residual = 0.001018949, No Iterations 4
Radiation solver iter: 11
DILUPBiCGStab:  Solving for ILambda_0_0, Initial residual = 0.007474395, Final residual = 6.150762e-18, No Iterations 1
DILUPBiCGStab:  Solving for ILambda_1_0, Initial residual = 0.003758129, Final residual = 2.081907e-18, No Iterations 1
DILUPBiCGStab:  Solving for ILambda_2_0, Initial residual = 0.0006560845, Final residual = 2.847136e-19, No Iterations 1
DILUPBiCGStab:  Solving for ILambda_5_0, Initial residual = 0.0007256008, Final residual = 6.900393e-05, No Iterations 2
DILUPBiCGStab:  Solving for ILambda_6_0, Initial residual = 0.004952235, Final residual = 0.0002692731, No Iterations 2
DILUPBiCGStab:  Solving for ILambda_7_0, Initial residual = 0.00877783, Final residual = 0.0006993466, No Iterations 3
DILUPBiCGStab:  Solving for ILambda_8_0, Initial residual = 0.01077271, Final residual = 7.309111e-18, No Iterations 1
DILUPBiCGStab:  Solving for ILambda_9_0, Initial residual = 0.007723449, Final residual = 6.900392e-18, No Iterations 1
DILUPBiCGStab:  Solving for ILambda_10_0, Initial residual = 0.004931704, Final residual = 6.357639e-18, No Iterations 1
DILUPBiCGStab:  Solving for ILambda_11_0, Initial residual = 0.002402283, Final residual = 6.435269e-18, No Iterations 1
DILUPBiCGStab:  Solving for ILambda_12_0, Initial residual = 0.002302492, Final residual = 9.831375e-05, No Iterations 4
DILUPBiCGStab:  Solving for ILambda_13_0, Initial residual = 0.004424858, Final residual = 0.00026217, No Iterations 7
DILUPBiCGStab:  Solving for ILambda_14_0, Initial residual = 0.006189388, Final residual = 0.0005471041, No Iterations 4
DILUPBiCGStab:  Solving for ILambda_15_0, Initial residual = 0.008915019, Final residual = 0.0008785662, No Iterations 3
Radiation solver iter: 12
DILUPBiCGStab:  Solving for ILambda_0_0, Initial residual = 0.006368405, Final residual = 5.123209e-18, No Iterations 1
DILUPBiCGStab:  Solving for ILambda_1_0, Initial residual = 0.00286555, Final residual = 1.284983e-18, No Iterations 1
DILUPBiCGStab:  Solving for ILambda_6_0, Initial residual = 0.003707497, Final residual = 0.0003298497, No Iterations 2
DILUPBiCGStab:  Solving for ILambda_7_0, Initial residual = 0.007524048, Final residual = 0.0003482676, No Iterations 4
DILUPBiCGStab:  Solving for ILambda_8_0, Initial residual = 0.009258682, Final residual = 6.223447e-18, No Iterations 1
DILUPBiCGStab:  Solving for ILambda_9_0, Initial residual = 0.006542546, Final residual = 5.528962e-18, No Iterations 1
DILUPBiCGStab:  Solving for ILambda_10_0, Initial residual = 0.003937424, Final residual = 5.458021e-18, No Iterations 1
DILUPBiCGStab:  Solving for ILambda_11_0, Initial residual = 0.001809643, Final residual = 4.971557e-18, No Iterations 1
DILUPBiCGStab:  Solving for ILambda_12_0, Initial residual = 0.001725076, Final residual = 6.280884e-05, No Iterations 4
DILUPBiCGStab:  Solving for ILambda_13_0, Initial residual = 0.003510788, Final residual = 0.0003091916, No Iterations 6
DILUPBiCGStab:  Solving for ILambda_14_0, Initial residual = 0.005260306, Final residual = 0.0004901256, No Iterations 6
DILUPBiCGStab:  Solving for ILambda_15_0, Initial residual = 0.007693346, Final residual = 0.0004483903, No Iterations 4
Radiation solver iter: 13
DILUPBiCGStab:  Solving for ILambda_0_0, Initial residual = 0.005404762, Final residual = 4.051016e-18, No Iterations 1
DILUPBiCGStab:  Solving for ILambda_1_0, Initial residual = 0.002155959, Final residual = 8.987821e-19, No Iterations 1
DILUPBiCGStab:  Solving for ILambda_6_0, Initial residual = 0.002755861, Final residual = 0.0002214083, No Iterations 2
DILUPBiCGStab:  Solving for ILambda_7_0, Initial residual = 0.006354738, Final residual = 0.0004561609, No Iterations 2
DILUPBiCGStab:  Solving for ILambda_8_0, Initial residual = 0.007967039, Final residual = 6.25085e-18, No Iterations 1
DILUPBiCGStab:  Solving for ILambda_9_0, Initial residual = 0.005574171, Final residual = 4.780612e-18, No Iterations 1
DILUPBiCGStab:  Solving for ILambda_10_0, Initial residual = 0.003131372, Final residual = 4.128672e-18, No Iterations 1
DILUPBiCGStab:  Solving for ILambda_11_0, Initial residual = 0.001388966, Final residual = 3.631082e-18, No Iterations 1
DILUPBiCGStab:  Solving for ILambda_12_0, Initial residual = 0.001320524, Final residual = 5.095398e-05, No Iterations 4
DILUPBiCGStab:  Solving for ILambda_13_0, Initial residual = 0.002784901, Final residual = 0.0001780409, No Iterations 7
DILUPBiCGStab:  Solving for ILambda_14_0, Initial residual = 0.004601096, Final residual = 0.0003876249, No Iterations 6
DILUPBiCGStab:  Solving for ILambda_15_0, Initial residual = 0.006595878, Final residual = 0.0005095462, No Iterations 3
Radiation solver iter: 14
DILUPBiCGStab:  Solving for ILambda_0_0, Initial residual = 0.004566055, Final residual = 3.579814e-18, No Iterations 1
DILUPBiCGStab:  Solving for ILambda_1_0, Initial residual = 0.001599103, Final residual = 7.436715e-19, No Iterations 1
DILUPBiCGStab:  Solving for ILambda_6_0, Initial residual = 0.002024747, Final residual = 0.0001450871, No Iterations 2
DILUPBiCGStab:  Solving for ILambda_7_0, Initial residual = 0.005416405, Final residual = 0.0004242224, No Iterations 2
DILUPBiCGStab:  Solving for ILambda_8_0, Initial residual = 0.006873568, Final residual = 4.66796e-18, No Iterations 1
DILUPBiCGStab:  Solving for ILambda_9_0, Initial residual = 0.004739664, Final residual = 4.024743e-18, No Iterations 1
DILUPBiCGStab:  Solving for ILambda_10_0, Initial residual = 0.002473587, Final residual = 3.155314e-18, No Iterations 1
DILUPBiCGStab:  Solving for ILambda_11_0, Initial residual = 0.001081816, Final residual = 2.899966e-18, No Iterations 1
DILUPBiCGStab:  Solving for ILambda_12_0, Initial residual = 0.001026809, Final residual = 3.979157e-05, No Iterations 4
DILUPBiCGStab:  Solving for ILambda_13_0, Initial residual = 0.002203574, Final residual = 0.000191516, No Iterations 6
DILUPBiCGStab:  Solving for ILambda_14_0, Initial residual = 0.003884267, Final residual = 0.0003849278, No Iterations 8
DILUPBiCGStab:  Solving for ILambda_15_0, Initial residual = 0.00574173, Final residual = 0.0003705215, No Iterations 4
GAMG:  Solving for p_rgh, Initial residual = 0.03926164, Final residual = 7.701678e-05, No Iterations 2
limitVelocity limitU Limited 0 (0%) of cells, with max limit 5
time step continuity errors : sum local = 0.000425763, global = -1.863601e-17, cumulative = 2.271812e-15
rho min/max : 0.421272 0.9627862
DILUPBiCGStab:  Solving for omega, Initial residual = 0.0005131615, Final residual = 1.531357e-05, No Iterations 1
DILUPBiCGStab:  Solving for k, Initial residual = 0.0007733484, Final residual = 3.827404e-05, No Iterations 1
ExecutionTime = 0.62 s  ClockTime = 1 s

Time = 3502

DILUPBiCGStab:  Solving for h, Initial residual = 0.000448448, Final residual = 2.272988e-07, No Iterations 1
limitTemperature limitT Lower limited 0 (0%) of cells, with min limit 280
limitTemperature limitT Upper limited 0 (0%) of cells, with max limit 1200
limitTemperature limitT Unlimited Tmin 415.365
limitTemperature limitT Unlimited Tmax 502.2047
GAMG:  Solving for p_rgh, Initial residual = 0.03360339, Final residual = 6.382179e-05, No Iterations 2
limitVelocity limitU Limited 0 (0%) of cells, with max limit 5
time step continuity errors : sum local = 0.0003824628, global = 4.639326e-17, cumulative = 2.318205e-15
rho min/max : 0.5154569 0.9552148
DILUPBiCGStab:  Solving for omega, Initial residual = 0.0003377614, Final residual = 1.112604e-05, No Iterations 1
DILUPBiCGStab:  Solving for k, Initial residual = 0.000675245, Final residual = 3.762452e-05, No Iterations 1
ExecutionTime = 0.63 s  ClockTime = 1 s

Time = 3503

DILUPBiCGStab:  Solving for h, Initial residual = 0.0003567052, Final residual = 1.428236e-07, No Iterations 1
limitTemperature limitT Lower limited 0 (0%) of cells, with min limit 280
limitTemperature limitT Upper limited 0 (0%) of cells, with max limit 1200
limitTemperature limitT Unlimited Tmin 415.3908
limitTemperature limitT Unlimited Tmax 502.3604
GAMG:  Solving for p_rgh, Initial residual = 0.02913104, Final residual = 5.614442e-05, No Iterations 2
limitVelocity limitU Limited 0 (0%) of cells, with max limit 5
time step continuity errors : sum local = 0.0003470863, global = -1.897595e-17, cumulative = 2.299229e-15
rho min/max : 0.5835188 0.9482022
DILUPBiCGStab:  Solving for omega, Initial residual = 0.0002834464, Final residual = 9.455998e-06, No Iterations 1
DILUPBiCGStab:  Solving for k, Initial residual = 0.0006683043, Final residual = 3.572504e-05, No Iterations 1
ExecutionTime = 0.64 s  ClockTime = 1 s

Time = 3504

DILUPBiCGStab:  Solving for h, Initial residual = 0.0004508057, Final residual = 2.497591e-07, No Iterations 1
limitTemperature limitT Lower limited 0 (0%) of cells, with min limit 280
limitTemperature limitT Upper limited 0 (0%) of cells, with max limit 1200
limitTemperature limitT Unlimited Tmin 415.4302
limitTemperature limitT Unlimited Tmax 501.4617
Radiation solver iter: 0
DILUPBiCGStab:  Solving for ILambda_0_0, Initial residual = 0.4186851, Final residual = 4.13496e-15, No Iterations 1
DILUPBiCGStab:  Solving for ILambda_1_0, Initial residual = 0.6368431, Final residual = 4.383485e-15, No Iterations 1
DILUPBiCGStab:  Solving for ILambda_2_0, Initial residual = 0.7643899, Final residual = 4.158485e-15, No Iterations 1
DILUPBiCGStab:  Solving for ILambda_3_0, Initial residual = 0.8433162, Final residual = 4.228707e-15, No Iterations 1
DILUPBiCGStab:  Solving for ILambda_4_0, Initial residual = 0.8419152, Final residual = 0.05763125, No Iterations 5
DILUPBiCGStab:  Solving for ILambda_5_0, Initial residual = 0.7627579, Final residual = 0.05406933, No Iterations 11
DILUPBiCGStab:  Solving for ILambda_6_0, Initial residual = 0.6373086, Final residual = 0.03868475, No Iterations 19
DILUPBiCGStab:  Solving for ILambda_7_0, Initial residual = 0.4402451, Final residual = 0.04244545, No Iterations 31
DILUPBiCGStab:  Solving for ILambda_8_0, Initial residual = 0.684912, Final residual = 5.990134e-15, No Iterations 1
DILUPBiCGStab:  Solving for ILambda_9_0, Initial residual = 0.7620266, Final residual = 5.055611e-15, No Iterations 1
DILUPBiCGStab:  Solving for ILambda_10_0, Initial residual = 0.8256964, Final residual = 4.629638e-15, No Iterations 1
DILUPBiCGStab:  Solving for ILambda_11_0, Initial residual = 0.8708726, Final residual = 4.848789e-15, No Iterations 1
DILUPBiCGStab:  Solving for ILambda_12_0, Initial residual = 0.8638069, Final residual = 0.002666552, No Iterations 5
DILUPBiCGStab:  Solving for ILambda_13_0, Initial residual = 0.8103059, Final residual = 0.07656201, No Iterations 11
DILUPBiCGStab:  Solving for ILambda_14_0, Initial residual = 0.7376211, Final residual = 0.0290154, No Iterations 18
DILUPBiCGStab:  Solving for ILambda_15_0, Initial residual = 0.6292099, Final residual = 0.05677417, No Iterations 29
Radiation solver iter: 1
DILUPBiCGStab:  Solving for ILambda_0_0, Initial residual = 0.259457, Final residual = 1.173798e-15, No Iterations 1
DILUPBiCGStab:  Solving for ILambda_1_0, Initial residual = 0.2995684, Final residual = 1.111012e-15, No Iterations 1
DILUPBiCGStab:  Solving for ILambda_2_0, Initial residual = 0.3528317, Final residual = 1.158119e-15, No Iterations 1
DILUPBiCGStab:  Solving for ILambda_3_0, Initial residual = 0.3772142, Final residual = 1.398072e-15, No Iterations 1
DILUPBiCGStab:  Solving for ILambda_4_0, Initial residual = 0.5979784, Final residual = 0.04335798, No Iterations 4
DILUPBiCGStab:  Solving for ILambda_5_0, Initial residual = 0.4959066, Final residual = 0.03067112, No Iterations 9
DILUPBiCGStab:  Solving for ILambda_6_0, Initial residual = 0.361791, Final residual = 0.01576357, No Iterations 12
DILUPBiCGStab:  Solving for ILambda_7_0, Initial residual = 0.293284, Final residual = 0.02713582, No Iterations 15
DILUPBiCGStab:  Solving for ILambda_8_0, Initial residual = 0.09529504, Final residual = 4.891485e-16, No Iterations 1
DILUPBiCGStab:  Solving for ILambda_9_0, Initial residual = 0.1229034, Final residual = 5.800767e-16, No Iterations 1
DILUPBiCGStab:  Solving for ILambda_10_0, Initial residual = 0.1758996, Final residual = 7.375515e-16, No Iterations 1
DILUPBiCGStab:  Solving for ILambda_11_0, Initial residual = 0.2600713, Final residual = 1.099355e-15, No Iterations 1
DILUPBiCGStab:  Solving for ILambda_12_0, Initial residual = 0.3232991, Final residual = 0.01654964, No Iterations 4
DILUPBiCGStab:  Solving for ILambda_13_0, Initial residual = 0.5261941, Final residual = 0.0521147, No Iterations 6
DILUPBiCGStab:  Solving for ILambda_14_0, Initial residual = 0.2986119, Final residual = 0.02603469, No Iterations 12
DILUPBiCGStab:  Solving for ILambda_15_0, Initial residual = 0.287217, Final residual = 0.0203363, No Iterations 20
Radiation solver iter: 2
DILUPBiCGStab:  Solving for ILambda_0_0, Initial residual = 0.1456189, Final residual = 3.172855e-16, No Iterations 1
DILUPBiCGStab:  Solving for ILambda_1_0, Initial residual = 0.1479522, Final residual = 2.072173e-16, No Iterations 1
DILUPBiCGStab:  Solving for ILambda_2_0, Initial residual = 0.1428036, Final residual = 1.532909e-16, No Iterations 1
DILUPBiCGStab:  Solving for ILambda_3_0, Initial residual = 0.09154745, Final residual = 1.030807e-16, No Iterations 1
DILUPBiCGStab:  Solving for ILambda_4_0, Initial residual = 0.160077, Final residual = 0.01499026, No Iterations 2
DILUPBiCGStab:  Solving for ILambda_5_0, Initial residual = 0.1780309, Final residual = 0.01547185, No Iterations 6
DILUPBiCGStab:  Solving for ILambda_6_0, Initial residual = 0.1554582, Final residual = 0.01287036, No Iterations 6
DILUPBiCGStab:  Solving for ILambda_7_0, Initial residual = 0.158563, Final residual = 0.01584547, No Iterations 9
DILUPBiCGStab:  Solving for ILambda_8_0, Initial residual = 0.03475968, Final residual = 6.001501e-17, No Iterations 1
DILUPBiCGStab:  Solving for ILambda_9_0, Initial residual = 0.04188219, Final residual = 6.501945e-17, No Iterations 1
DILUPBiCGStab:  Solving for ILambda_10_0, Initial residual = 0.0533474, Final residual = 1.00278e-16, No Iterations 1
DILUPBiCGStab:  Solving for ILambda_11_0, Initial residual = 0.05940592, Final residual = 1.627635e-16, No Iterations 1
DILUPBiCGStab:  Solving for ILambda_12_0, Initial residual = 0.07820835, Final residual = 0.005723655, No Iterations 3
DILUPBiCGStab:  Solving for ILambda_13_0, Initial residual = 0.126336, Final residual = 0.004692379, No Iterations 8
DILUPBiCGStab:  Solving for ILambda_14_0, Initial residual = 0.09416795, Final residual = 0.008420251, No Iterations 11
DILUPBiCGStab:  Solving for ILambda_15_0, Initial residual = 0.09702913, Final residual = 0.004732945, No Iterations 14
Radiation solver iter: 3
DILUPBiCGStab:  Solving for ILambda_0_0, Initial residual = 0.1277267, Final residual = 2.244515e-16, No Iterations 1
DILUPBiCGStab:  Solving for ILambda_1_0, Initial residual = 0.1220046, Final residual = 1.296906e-16, No Iterations 1
DILUPBiCGStab:  Solving for ILambda_2_0, Initial residual = 0.1004149, Final residual = 9.153214e-17, No Iterations 1
DILUPBiCGStab:  Solving for ILambda_3_0, Initial residual = 0.03949687, Final residual = 3.422e-17, No Iterations 1
DILUPBiCGStab:  Solving for ILambda_4_0, Initial residual = 0.05365035, Final residual = 0.002820208, No Iterations 3
DILUPBiCGStab:  Solving for ILambda_5_0, Initial residual = 0.1194585, Final residual = 0.01120293, No Iterations 4
DILUPBiCGStab:  Solving for ILambda_6_0, Initial residual = 0.1264256, Final residual = 0.01257936, No Iterations 5
DILUPBiCGStab:  Solving for ILambda_7_0, Initial residual = 0.1335463, Final residual = 0.01281804, No Iterations 7
DILUPBiCGStab:  Solving for ILambda_8_0, Initial residual = 0.0282037, Final residual = 3.840115e-17, No Iterations 1
DILUPBiCGStab:  Solving for ILambda_9_0, Initial residual = 0.03489883, Final residual = 5.262047e-17, No Iterations 1
DILUPBiCGStab:  Solving for ILambda_10_0, Initial residual = 0.04194563, Final residual = 7.700228e-17, No Iterations 1
DILUPBiCGStab:  Solving for ILambda_11_0, Initial residual = 0.04216748, Final residual = 1.182794e-16, No Iterations 1
DILUPBiCGStab:  Solving for ILambda_12_0, Initial residual = 0.05047781, Final residual = 0.003750604, No Iterations 4
DILUPBiCGStab:  Solving for ILambda_13_0, Initial residual = 0.06633654, Final residual = 0.004438984, No Iterations 7
DILUPBiCGStab:  Solving for ILambda_14_0, Initial residual = 0.06477621, Final residual = 0.006020695, No Iterations 11
DILUPBiCGStab:  Solving for ILambda_15_0, Initial residual = 0.06645519, Final residual = 0.005678264, No Iterations 9
Radiation solver iter: 4
DILUPBiCGStab:  Solving for ILambda_0_0, Initial residual = 0.118618, Final residual = 1.763348e-16, No Iterations 1
DILUPBiCGStab:  Solving for ILambda_1_0, Initial residual = 0.1039757, Final residual = 9.882552e-17, No Iterations 1
DILUPBiCGStab:  Solving for ILambda_2_0, Initial residual = 0.07216008, Final residual = 5.810581e-17, No Iterations 1
DILUPBiCGStab:  Solving for ILambda_3_0, Initial residual = 0.01675889, Final residual = 1.322993e-17, No Iterations 1
DILUPBiCGStab:  Solving for ILambda_4_0, Initial residual = 0.0187172, Final residual = 0.001388055, No Iterations 2
DILUPBiCGStab:  Solving for ILambda_5_0, Initial residual = 0.08327343, Final residual = 0.008071428, No Iterations 3
DILUPBiCGStab:  Solving for ILambda_6_0, Initial residual = 0.1100642, Final residual = 0.007377925, No Iterations 4
DILUPBiCGStab:  Solving for ILambda_7_0, Initial residual = 0.1234327, Final residual = 0.01090475, No Iterations 5
DILUPBiCGStab:  Solving for ILambda_8_0, Initial residual = 0.02424851, Final residual = 3.113552e-17, No Iterations 1
DILUPBiCGStab:  Solving for ILambda_9_0, Initial residual = 0.02990595, Final residual = 3.957494e-17, No Iterations 1
DILUPBiCGStab:  Solving for ILambda_10_0, Initial residual = 0.03243202, Final residual = 5.696333e-17, No Iterations 1
DILUPBiCGStab:  Solving for ILambda_11_0, Initial residual = 0.0278507, Final residual = 7.580823e-17, No Iterations 1
DILUPBiCGStab:  Solving for ILambda_12_0, Initial residual = 0.03151857, Final residual = 0.001853316, No Iterations 4
DILUPBiCGStab:  Solving for ILambda_13_0, Initial residual = 0.04870647, Final residual = 0.004508228, No Iterations 7
DILUPBiCGStab:  Solving for ILambda_14_0, Initial residual = 0.05664695, Final residual = 0.00473158, No Iterations 8
DILUPBiCGStab:  Solving for ILambda_15_0, Initial residual = 0.05754205, Final residual = 0.003248784, No Iterations 8
Radiation solver iter: 5
DILUPBiCGStab:  Solving for ILambda_0_0, Initial residual = 0.1123034, Final residual = 1.415848e-16, No Iterations 1
DILUPBiCGStab:  Solving for ILambda_1_0, Initial residual = 0.090733, Final residual = 8.064377e-17, No Iterations 1
DILUPBiCGStab:  Solving for ILambda_2_0, Initial residual = 0.05221693, Final residual = 3.89441e-17, No Iterations 1
DILUPBiCGStab:  Solving for ILambda_3_0, Initial residual = 0.006591804, Final residual = 4.94227e-18, No Iterations 1
DILUPBiCGStab:  Solving for ILambda_4_0, Initial residual = 0.006762823, Final residual = 0.0006064661, No Iterations 2
DILUPBiCGStab:  Solving for ILambda_5_0, Initial residual = 0.05887137, Final residual = 0.001640238, No Iterations 4
DILUPBiCGStab:  Solving for ILambda_6_0, Initial residual = 0.09778699, Final residual = 0.009192427, No Iterations 3
DILUPBiCGStab:  Solving for ILambda_7_0, Initial residual = 0.1166747, Final residual = 0.01062692, No Iterations 4
DILUPBiCGStab:  Solving for ILambda_8_0, Initial residual = 0.02140695, Final residual = 2.311312e-17, No Iterations 1
DILUPBiCGStab:  Solving for ILambda_9_0, Initial residual = 0.02555949, Final residual = 3.318426e-17, No Iterations 1
DILUPBiCGStab:  Solving for ILambda_10_0, Initial residual = 0.02474669, Final residual = 4.186954e-17, No Iterations 1
DILUPBiCGStab:  Solving for ILambda_11_0, Initial residual = 0.01906575, Final residual = 5.352486e-17, No Iterations 1
DILUPBiCGStab:  Solving for ILambda_12_0, Initial residual = 0.02121052, Final residual = 0.001236579, No Iterations 4
DILUPBiCGStab:  Solving for ILambda_13_0, Initial residual = 0.03667342, Final residual = 0.002901044, No Iterations 7
DILUPBiCGStab:  Solving for ILambda_14_0, Initial residual = 0.04875841, Final residual = 0.003617578, No Iterations 10
DILUPBiCGStab:  Solving for ILambda_15_0, Initial residual = 0.0511428, Final residual = 0.004868766, No Iterations 6
Radiation solver iter: 6
DILUPBiCGStab:  Solving for ILambda_0_0, Initial residual = 0.1072409, Final residual = 1.221624e-16, No Iterations 1
DILUPBiCGStab:  Solving for ILambda_1_0, Initial residual = 0.07902692, Final residual = 5.52331e-17, No Iterations 1
DILUPBiCGStab:  Solving for ILambda_2_0, Initial residual = 0.03707883, Final residual = 2.16977e-17, No Iterations 1
DILUPBiCGStab:  Solving for ILambda_3_0, Initial residual = 0.002613602, Final residual = 2.65801e-18, No Iterations 1
DILUPBiCGStab:  Solving for ILambda_4_0, Initial residual = 0.002675401, Final residual = 0.0001872101, No Iterations 2
DILUPBiCGStab:  Solving for ILambda_5_0, Initial residual = 0.03958982, Final residual = 0.003016366, No Iterations 3
DILUPBiCGStab:  Solving for ILambda_6_0, Initial residual = 0.08747368, Final residual = 0.007759273, No Iterations 3
DILUPBiCGStab:  Solving for ILambda_7_0, Initial residual = 0.1118043, Final residual = 0.01083452, No Iterations 4
DILUPBiCGStab:  Solving for ILambda_8_0, Initial residual = 0.01882472, Final residual = 1.949643e-17, No Iterations 1
DILUPBiCGStab:  Solving for ILambda_9_0, Initial residual = 0.02145462, Final residual = 2.898857e-17, No Iterations 1
DILUPBiCGStab:  Solving for ILambda_10_0, Initial residual = 0.01925716, Final residual = 3.067155e-17, No Iterations 1
DILUPBiCGStab:  Solving for ILambda_11_0, Initial residual = 0.01410178, Final residual = 3.812503e-17, No Iterations 1
DILUPBiCGStab:  Solving for ILambda_12_0, Initial residual = 0.01595419, Final residual = 0.0009673536, No Iterations 4
DILUPBiCGStab:  Solving for ILambda_13_0, Initial residual = 0.02784044, Final residual = 0.001520197, No Iterations 9
DILUPBiCGStab:  Solving for ILambda_14_0, Initial residual = 0.04035047, Final residual = 0.003622221, No Iterations 9
DILUPBiCGStab:  Solving for ILambda_15_0, Initial residual = 0.04650968, Final residual = 0.004452699, No Iterations 5
Radiation solver iter: 7
DILUPBiCGStab:  Solving for ILambda_0_0, Initial residual = 0.1026612, Final residual = 1.173301e-16, No Iterations 1
DILUPBiCGStab:  Solving for ILambda_1_0, Initial residual = 0.06821522, Final residual = 4.773269e-17, No Iterations 1
DILUPBiCGStab:  Solving for ILambda_2_0, Initial residual = 0.02537871, Final residual = 1.432553e-17, No Iterations 1
DILUPBiCGStab:  Solving for ILambda_3_0, Initial residual = 0.001067236, Final residual = 1.535048e-18, No Iterations 1
DILUPBiCGStab:  Solving for ILambda_4_0, Initial residual = 0.001172584, Final residual = 0.0001079245, No Iterations 3
DILUPBiCGStab:  Solving for ILambda_5_0, Initial residual = 0.0262272, Final residual = 0.001858943, No Iterations 3
DILUPBiCGStab:  Solving for ILambda_6_0, Initial residual = 0.07674768, Final residual = 0.007077418, No Iterations 2
DILUPBiCGStab:  Solving for ILambda_7_0, Initial residual = 0.1075877, Final residual = 0.0107282, No Iterations 4
DILUPBiCGStab:  Solving for ILambda_8_0, Initial residual = 0.0164045, Final residual = 1.507041e-17, No Iterations 1
DILUPBiCGStab:  Solving for ILambda_9_0, Initial residual = 0.01789456, Final residual = 2.059927e-17, No Iterations 1
DILUPBiCGStab:  Solving for ILambda_10_0, Initial residual = 0.01571014, Final residual = 2.367754e-17, No Iterations 1
DILUPBiCGStab:  Solving for ILambda_11_0, Initial residual = 0.01123896, Final residual = 2.951334e-17, No Iterations 1
DILUPBiCGStab:  Solving for ILambda_12_0, Initial residual = 0.01281643, Final residual = 0.001235628, No Iterations 4
DILUPBiCGStab:  Solving for ILambda_13_0, Initial residual = 0.02233516, Final residual = 0.0006319834, No Iterations 8
DILUPBiCGStab:  Solving for ILambda_14_0, Initial residual = 0.03287261, Final residual = 0.003045404, No Iterations 6
DILUPBiCGStab:  Solving for ILambda_15_0, Initial residual = 0.04097338, Final residual = 0.003876565, No Iterations 5
Radiation solver iter: 8
DILUPBiCGStab:  Solving for ILambda_0_0, Initial residual = 0.09738144, Final residual = 9.5444e-17, No Iterations 1
DILUPBiCGStab:  Solving for ILambda_1_0, Initial residual = 0.05814484, Final residual = 3.599833e-17, No Iterations 1
DILUPBiCGStab:  Solving for ILambda_2_0, Initial residual = 0.01663709, Final residual = 9.792299e-18, No Iterations 1
DILUPBiCGStab:  Solving for ILambda_3_0, Initial residual = 0.0005004139, Final residual = 8.387615e-19, No Iterations 1
DILUPBiCGStab:  Solving for ILambda_4_0, Initial residual = 0.0005350736, Final residual = 3.193007e-05, No Iterations 4
DILUPBiCGStab:  Solving for ILambda_5_0, Initial residual = 0.01675621, Final residual = 0.0006485301, No Iterations 3
DILUPBiCGStab:  Solving for ILambda_6_0, Initial residual = 0.06598223, Final residual = 0.00551221, No Iterations 2
DILUPBiCGStab:  Solving for ILambda_7_0, Initial residual = 0.1014197, Final residual = 0.0100045, No Iterations 4
DILUPBiCGStab:  Solving for ILambda_8_0, Initial residual = 0.01418671, Final residual = 1.268386e-17, No Iterations 1
DILUPBiCGStab:  Solving for ILambda_9_0, Initial residual = 0.0149929, Final residual = 1.452925e-17, No Iterations 1
DILUPBiCGStab:  Solving for ILambda_10_0, Initial residual = 0.01340684, Final residual = 1.816035e-17, No Iterations 1
DILUPBiCGStab:  Solving for ILambda_11_0, Initial residual = 0.009348889, Final residual = 2.516069e-17, No Iterations 1
DILUPBiCGStab:  Solving for ILambda_12_0, Initial residual = 0.01060933, Final residual = 0.0006811163, No Iterations 4
DILUPBiCGStab:  Solving for ILambda_13_0, Initial residual = 0.01899277, Final residual = 0.001350968, No Iterations 7
DILUPBiCGStab:  Solving for ILambda_14_0, Initial residual = 0.02716663, Final residual = 0.00227475, No Iterations 6
DILUPBiCGStab:  Solving for ILambda_15_0, Initial residual = 0.03585956, Final residual = 0.003394403, No Iterations 5
Radiation solver iter: 9
DILUPBiCGStab:  Solving for ILambda_0_0, Initial residual = 0.09193229, Final residual = 9.122249e-17, No Iterations 1
DILUPBiCGStab:  Solving for ILambda_1_0, Initial residual = 0.04853718, Final residual = 3.047876e-17, No Iterations 1
DILUPBiCGStab:  Solving for ILambda_2_0, Initial residual = 0.01051589, Final residual = 4.892455e-18, No Iterations 1
DILUPBiCGStab:  Solving for ILambda_5_0, Initial residual = 0.01026774, Final residual = 0.00036062, No Iterations 3
DILUPBiCGStab:  Solving for ILambda_6_0, Initial residual = 0.05501155, Final residual = 0.004087471, No Iterations 2
DILUPBiCGStab:  Solving for ILambda_7_0, Initial residual = 0.09443496, Final residual = 0.005406542, No Iterations 4
DILUPBiCGStab:  Solving for ILambda_8_0, Initial residual = 0.0122647, Final residual = 9.994353e-18, No Iterations 1
DILUPBiCGStab:  Solving for ILambda_9_0, Initial residual = 0.01271679, Final residual = 1.158377e-17, No Iterations 1
DILUPBiCGStab:  Solving for ILambda_10_0, Initial residual = 0.01148141, Final residual = 1.519402e-17, No Iterations 1
DILUPBiCGStab:  Solving for ILambda_11_0, Initial residual = 0.007658637, Final residual = 2.024604e-17, No Iterations 1
DILUPBiCGStab:  Solving for ILambda_12_0, Initial residual = 0.008558959, Final residual = 7.525939e-05, No Iterations 5
DILUPBiCGStab:  Solving for ILambda_13_0, Initial residual = 0.01685465, Final residual = 0.001483423, No Iterations 7
DILUPBiCGStab:  Solving for ILambda_14_0, Initial residual = 0.02300288, Final residual = 0.000795322, No Iterations 8
DILUPBiCGStab:  Solving for ILambda_15_0, Initial residual = 0.0309873, Final residual = 0.001657662, No Iterations 6
Radiation solver iter: 10
DILUPBiCGStab:  Solving for ILambda_0_0, Initial residual = 0.0858944, Final residual = 7.383083e-17, No Iterations 1
DILUPBiCGStab:  Solving for ILambda_1_0, Initial residual = 0.0397462, Final residual = 1.984544e-17, No Iterations 1
DILUPBiCGStab:  Solving for ILambda_2_0, Initial residual = 0.006372512, Final residual = 3.276796e-18, No Iterations 1
DILUPBiCGStab:  Solving for ILambda_5_0, Initial residual = 0.006075688, Final residual = 0.0002083993, No Iterations 3
DILUPBiCGStab:  Solving for ILambda_6_0, Initial residual = 0.04438378, Final residual = 0.002918321, No Iterations 2
DILUPBiCGStab:  Solving for ILambda_7_0, Initial residual = 0.08695338, Final residual = 0.006951906, No Iterations 3
DILUPBiCGStab:  Solving for ILambda_8_0, Initial residual = 0.01059729, Final residual = 7.656925e-18, No Iterations 1
DILUPBiCGStab:  Solving for ILambda_9_0, Initial residual = 0.01094458, Final residual = 1.034906e-17, No Iterations 1
DILUPBiCGStab:  Solving for ILambda_10_0, Initial residual = 0.009756497, Final residual = 1.3473e-17, No Iterations 1
DILUPBiCGStab:  Solving for ILambda_11_0, Initial residual = 0.006237588, Final residual = 1.632122e-17, No Iterations 1
DILUPBiCGStab:  Solving for ILambda_12_0, Initial residual = 0.007164817, Final residual = 0.0003475893, No Iterations 4
DILUPBiCGStab:  Solving for ILambda_13_0, Initial residual = 0.01413666, Final residual = 0.0004739832, No Iterations 8
DILUPBiCGStab:  Solving for ILambda_14_0, Initial residual = 0.01941424, Final residual = 0.001759009, No Iterations 9
DILUPBiCGStab:  Solving for ILambda_15_0, Initial residual = 0.02625281, Final residual = 0.002251611, No Iterations 3
Radiation solver iter: 11
DILUPBiCGStab:  Solving for ILambda_0_0, Initial residual = 0.07956024, Final residual = 7.10145e-17, No Iterations 1
DILUPBiCGStab:  Solving for ILambda_1_0, Initial residual = 0.03188793, Final residual = 1.582443e-17, No Iterations 1
DILUPBiCGStab:  Solving for ILambda_2_0, Initial residual = 0.003723092, Final residual = 1.640918e-18, No Iterations 1
DILUPBiCGStab:  Solving for ILambda_5_0, Initial residual = 0.00354412, Final residual = 0.0001297049, No Iterations 3
DILUPBiCGStab:  Solving for ILambda_6_0, Initial residual = 0.03487758, Final residual = 0.002004945, No Iterations 2
DILUPBiCGStab:  Solving for ILambda_7_0, Initial residual = 0.08002562, Final residual = 0.007897333, No Iterations 3
DILUPBiCGStab:  Solving for ILambda_8_0, Initial residual = 0.009159787, Final residual = 7.131845e-18, No Iterations 1
DILUPBiCGStab:  Solving for ILambda_9_0, Initial residual = 0.009431455, Final residual = 8.667697e-18, No Iterations 1
DILUPBiCGStab:  Solving for ILambda_10_0, Initial residual = 0.008028805, Final residual = 1.01013e-17, No Iterations 1
DILUPBiCGStab:  Solving for ILambda_11_0, Initial residual = 0.00483903, Final residual = 1.285417e-17, No Iterations 1
DILUPBiCGStab:  Solving for ILambda_12_0, Initial residual = 0.005718119, Final residual = 0.0002223614, No Iterations 4
DILUPBiCGStab:  Solving for ILambda_13_0, Initial residual = 0.01152993, Final residual = 0.0004148877, No Iterations 8
DILUPBiCGStab:  Solving for ILambda_14_0, Initial residual = 0.01691582, Final residual = 0.001590316, No Iterations 4
DILUPBiCGStab:  Solving for ILambda_15_0, Initial residual = 0.02280472, Final residual = 0.001443017, No Iterations 4
Radiation solver iter: 12
DILUPBiCGStab:  Solving for ILambda_0_0, Initial residual = 0.0727772, Final residual = 5.554994e-17, No Iterations 1
DILUPBiCGStab:  Solving for ILambda_1_0, Initial residual = 0.02501943, Final residual = 1.363021e-17, No Iterations 1
DILUPBiCGStab:  Solving for ILambda_2_0, Initial residual = 0.002124423, Final residual = 1.302153e-18, No Iterations 1
DILUPBiCGStab:  Solving for ILambda_5_0, Initial residual = 0.00201236, Final residual = 8.896989e-05, No Iterations 3
DILUPBiCGStab:  Solving for ILambda_6_0, Initial residual = 0.02672337, Final residual = 0.002455765, No Iterations 2
DILUPBiCGStab:  Solving for ILambda_7_0, Initial residual = 0.07292149, Final residual = 0.003255042, No Iterations 4
DILUPBiCGStab:  Solving for ILambda_8_0, Initial residual = 0.007942039, Final residual = 5.84931e-18, No Iterations 1
DILUPBiCGStab:  Solving for ILambda_9_0, Initial residual = 0.008160127, Final residual = 7.32022e-18, No Iterations 1
DILUPBiCGStab:  Solving for ILambda_10_0, Initial residual = 0.00649358, Final residual = 8.502848e-18, No Iterations 1
DILUPBiCGStab:  Solving for ILambda_11_0, Initial residual = 0.003765093, Final residual = 9.771318e-18, No Iterations 1
DILUPBiCGStab:  Solving for ILambda_12_0, Initial residual = 0.00440835, Final residual = 0.000169019, No Iterations 4
DILUPBiCGStab:  Solving for ILambda_13_0, Initial residual = 0.009392942, Final residual = 0.0007681422, No Iterations 7
DILUPBiCGStab:  Solving for ILambda_14_0, Initial residual = 0.01466862, Final residual = 0.001326922, No Iterations 6
DILUPBiCGStab:  Solving for ILambda_15_0, Initial residual = 0.01984523, Final residual = 0.001937221, No Iterations 4
Radiation solver iter: 13
DILUPBiCGStab:  Solving for ILambda_0_0, Initial residual = 0.06580497, Final residual = 4.960293e-17, No Iterations 1
DILUPBiCGStab:  Solving for ILambda_1_0, Initial residual = 0.01919916, Final residual = 9.448848e-18, No Iterations 1
DILUPBiCGStab:  Solving for ILambda_2_0, Initial residual = 0.001189503, Final residual = 6.190676e-19, No Iterations 1
DILUPBiCGStab:  Solving for ILambda_5_0, Initial residual = 0.001133974, Final residual = 6.429379e-05, No Iterations 3
DILUPBiCGStab:  Solving for ILambda_6_0, Initial residual = 0.02015839, Final residual = 0.001595304, No Iterations 2
DILUPBiCGStab:  Solving for ILambda_7_0, Initial residual = 0.06475569, Final residual = 0.004952503, No Iterations 2
DILUPBiCGStab:  Solving for ILambda_8_0, Initial residual = 0.006886253, Final residual = 4.908537e-18, No Iterations 1
DILUPBiCGStab:  Solving for ILambda_9_0, Initial residual = 0.007044965, Final residual = 5.790683e-18, No Iterations 1
DILUPBiCGStab:  Solving for ILambda_10_0, Initial residual = 0.005197435, Final residual = 6.584368e-18, No Iterations 1
DILUPBiCGStab:  Solving for ILambda_11_0, Initial residual = 0.002929155, Final residual = 8.237615e-18, No Iterations 1
DILUPBiCGStab:  Solving for ILambda_12_0, Initial residual = 0.003417291, Final residual = 0.0001235068, No Iterations 4
DILUPBiCGStab:  Solving for ILambda_13_0, Initial residual = 0.007633938, Final residual = 0.000673042, No Iterations 7
DILUPBiCGStab:  Solving for ILambda_14_0, Initial residual = 0.01300868, Final residual = 0.0006566973, No Iterations 7
DILUPBiCGStab:  Solving for ILambda_15_0, Initial residual = 0.01744959, Final residual = 0.0009619177, No Iterations 4
Radiation solver iter: 14
DILUPBiCGStab:  Solving for ILambda_0_0, Initial residual = 0.05873972, Final residual = 4.656816e-17, No Iterations 1
DILUPBiCGStab:  Solving for ILambda_1_0, Initial residual = 0.01442912, Final residual = 6.082961e-18, No Iterations 1
DILUPBiCGStab:  Solving for ILambda_2_0, Initial residual = 0.0006720251, Final residual = 3.437349e-19, No Iterations 1
DILUPBiCGStab:  Solving for ILambda_5_0, Initial residual = 0.0006532976, Final residual = 5.186113e-05, No Iterations 3
DILUPBiCGStab:  Solving for ILambda_6_0, Initial residual = 0.01498703, Final residual = 0.001059862, No Iterations 2
DILUPBiCGStab:  Solving for ILambda_7_0, Initial residual = 0.05770222, Final residual = 0.005362614, No Iterations 2
DILUPBiCGStab:  Solving for ILambda_8_0, Initial residual = 0.005972366, Final residual = 3.746769e-18, No Iterations 1
DILUPBiCGStab:  Solving for ILambda_9_0, Initial residual = 0.006041183, Final residual = 4.862471e-18, No Iterations 1
DILUPBiCGStab:  Solving for ILambda_10_0, Initial residual = 0.00411231, Final residual = 5.398417e-18, No Iterations 1
DILUPBiCGStab:  Solving for ILambda_11_0, Initial residual = 0.002273496, Final residual = 5.983039e-18, No Iterations 1
DILUPBiCGStab:  Solving for ILambda_12_0, Initial residual = 0.002646611, Final residual = 9.575439e-05, No Iterations 4
DILUPBiCGStab:  Solving for ILambda_13_0, Initial residual = 0.006028658, Final residual = 0.0003227025, No Iterations 8
DILUPBiCGStab:  Solving for ILambda_14_0, Initial residual = 0.01104133, Final residual = 0.001066549, No Iterations 9
DILUPBiCGStab:  Solving for ILambda_15_0, Initial residual = 0.01510302, Final residual = 0.001235804, No Iterations 3
GAMG:  Solving for p_rgh, Initial residual = 0.02216946, Final residual = 4.799705e-05, No Iterations 2
limitVelocity limitU Limited 0 (0%) of cells, with max limit 5
time step continuity errors : sum local = 0.0002992307, global = 6.90799e-18, cumulative = 2.306137e-15
rho min/max : 0.7087316 9.869216
DILUPBiCGStab:  Solving for omega, Initial residual = 0.0005667229, Final residual = 1.490236e-05, No Iterations 1
DILUPBiCGStab:  Solving for k, Initial residual = 0.0007188909, Final residual = 3.532583e-05, No Iterations 1
ExecutionTime = 1.16 s  ClockTime = 1 s

Time = 3505

DILUPBiCGStab:  Solving for h, Initial residual = 0.000372741, Final residual = 1.594165e-07, No Iterations 1
limitTemperature limitT Lower limited 0 (0%) of cells, with min limit 280
limitTemperature limitT Upper limited 0 (0%) of cells, with max limit 1200
limitTemperature limitT Unlimited Tmin 415.4812
limitTemperature limitT Unlimited Tmax 499.6984
GAMG:  Solving for p_rgh, Initial residual = 0.01516855, Final residual = 4.090663e-05, No Iterations 2
limitVelocity limitU Limited 0 (0%) of cells, with max limit 5
time step continuity errors : sum local = 0.0002460023, global = -4.4197e-18, cumulative = 2.301718e-15
rho min/max : 0.6908005 1.060679
DILUPBiCGStab:  Solving for omega, Initial residual = 0.0003835262, Final residual = 1.048518e-05, No Iterations 1
DILUPBiCGStab:  Solving for k, Initial residual = 0.0006653399, Final residual = 3.391315e-05, No Iterations 1
ExecutionTime = 1.17 s  ClockTime = 1 s

Time = 3506

DILUPBiCGStab:  Solving for h, Initial residual = 0.0002886667, Final residual = 1.500772e-07, No Iterations 1
limitTemperature limitT Lower limited 0 (0%) of cells, with min limit 280
limitTemperature limitT Upper limited 0 (0%) of cells, with max limit 1200
limitTemperature limitT Unlimited Tmin 415.52
limitTemperature limitT Unlimited Tmax 497.7743
GAMG:  Solving for p_rgh, Initial residual = 0.01187502, Final residual = 3.245851e-05, No Iterations 2
limitVelocity limitU Limited 0 (0%) of cells, with max limit 5
time step continuity errors : sum local = 0.0001884899, global = -3.225696e-17, cumulative = 2.269461e-15
rho min/max : 0.5665773 0.9749283
DILUPBiCGStab:  Solving for omega, Initial residual = 0.0002697996, Final residual = 8.826961e-06, No Iterations 1
DILUPBiCGStab:  Solving for k, Initial residual = 0.0006967312, Final residual = 3.519499e-05, No Iterations 1
ExecutionTime = 1.18 s  ClockTime = 1 s

Time = 3507

DILUPBiCGStab:  Solving for h, Initial residual = 0.0002740653, Final residual = 1.411347e-07, No Iterations 1
limitTemperature limitT Lower limited 0 (0%) of cells, with min limit 280
limitTemperature limitT Upper limited 0 (0%) of cells, with max limit 1200
limitTemperature limitT Unlimited Tmin 415.5463
limitTemperature limitT Unlimited Tmax 496.8407
Radiation solver iter: 0
DILUPBiCGStab:  Solving for ILambda_0_0, Initial residual = 0.7266909, Final residual = 6.874934e-15, No Iterations 1
DILUPBiCGStab:  Solving for ILambda_1_0, Initial residual = 0.8455875, Final residual = 5.727957e-15, No Iterations 1
DILUPBiCGStab:  Solving for ILambda_2_0, Initial residual = 0.8732729, Final residual = 5.066808e-15, No Iterations 1
DILUPBiCGStab:  Solving for ILambda_3_0, Initial residual = 0.8862197, Final residual = 4.355428e-15, No Iterations 1
DILUPBiCGStab:  Solving for ILambda_4_0, Initial residual = 0.8840039, Final residual = 0.05233683, No Iterations 4
DILUPBiCGStab:  Solving for ILambda_5_0, Initial residual = 0.8656178, Final residual = 0.00833828, No Iterations 12
DILUPBiCGStab:  Solving for ILambda_6_0, Initial residual = 0.8328864, Final residual = 0.06711661, No Iterations 19
DILUPBiCGStab:  Solving for ILambda_7_0, Initial residual = 0.7305593, Final residual = 0.04196521, No Iterations 33
DILUPBiCGStab:  Solving for ILambda_8_0, Initial residual = 0.359713, Final residual = 3.249681e-15, No Iterations 1
DILUPBiCGStab:  Solving for ILambda_9_0, Initial residual = 0.5543468, Final residual = 3.616619e-15, No Iterations 1
DILUPBiCGStab:  Solving for ILambda_10_0, Initial residual = 0.6900805, Final residual = 3.486072e-15, No Iterations 1
DILUPBiCGStab:  Solving for ILambda_11_0, Initial residual = 0.7871615, Final residual = 3.566756e-15, No Iterations 1
DILUPBiCGStab:  Solving for ILambda_12_0, Initial residual = 0.8177358, Final residual = 0.01585143, No Iterations 5
DILUPBiCGStab:  Solving for ILambda_13_0, Initial residual = 0.7748515, Final residual = 0.06094355, No Iterations 12
DILUPBiCGStab:  Solving for ILambda_14_0, Initial residual = 0.7058373, Final residual = 0.03265517, No Iterations 20
DILUPBiCGStab:  Solving for ILambda_15_0, Initial residual = 0.5579391, Final residual = 0.006759444, No Iterations 33
Radiation solver iter: 1
DILUPBiCGStab:  Solving for ILambda_0_0, Initial residual = 0.08130951, Final residual = 3.480449e-16, No Iterations 1
DILUPBiCGStab:  Solving for ILambda_1_0, Initial residual = 0.09695556, Final residual = 3.527064e-16, No Iterations 1
DILUPBiCGStab:  Solving for ILambda_2_0, Initial residual = 0.1137355, Final residual = 4.365845e-16, No Iterations 1
DILUPBiCGStab:  Solving for ILambda_3_0, Initial residual = 0.1229577, Final residual = 4.743203e-16, No Iterations 1
DILUPBiCGStab:  Solving for ILambda_4_0, Initial residual = 0.2983268, Final residual = 0.02833977, No Iterations 3
DILUPBiCGStab:  Solving for ILambda_5_0, Initial residual = 0.133755, Final residual = 0.005759949, No Iterations 10
DILUPBiCGStab:  Solving for ILambda_6_0, Initial residual = 0.1876252, Final residual = 0.01810959, No Iterations 13
DILUPBiCGStab:  Solving for ILambda_7_0, Initial residual = 0.1053804, Final residual = 0.006985446, No Iterations 19
DILUPBiCGStab:  Solving for ILambda_8_0, Initial residual = 0.05198157, Final residual = 2.492962e-16, No Iterations 1
DILUPBiCGStab:  Solving for ILambda_9_0, Initial residual = 0.06639308, Final residual = 2.830617e-16, No Iterations 1
DILUPBiCGStab:  Solving for ILambda_10_0, Initial residual = 0.07512847, Final residual = 3.01785e-16, No Iterations 1
DILUPBiCGStab:  Solving for ILambda_11_0, Initial residual = 0.08184281, Final residual = 3.567382e-16, No Iterations 1
DILUPBiCGStab:  Solving for ILambda_12_0, Initial residual = 0.1345336, Final residual = 0.005112744, No Iterations 4
DILUPBiCGStab:  Solving for ILambda_13_0, Initial residual = 0.2376209, Final residual = 0.02222496, No Iterations 6
DILUPBiCGStab:  Solving for ILambda_14_0, Initial residual = 0.1613057, Final residual = 0.003396545, No Iterations 13
DILUPBiCGStab:  Solving for ILambda_15_0, Initial residual = 0.1054446, Final residual = 0.009121576, No Iterations 25
Radiation solver iter: 2
DILUPBiCGStab:  Solving for ILambda_0_0, Initial residual = 0.03853411, Final residual = 7.267328e-17, No Iterations 1
DILUPBiCGStab:  Solving for ILambda_1_0, Initial residual = 0.04025059, Final residual = 4.718398e-17, No Iterations 1
DILUPBiCGStab:  Solving for ILambda_2_0, Initial residual = 0.04178282, Final residual = 4.183436e-17, No Iterations 1
DILUPBiCGStab:  Solving for ILambda_3_0, Initial residual = 0.02938993, Final residual = 3.399582e-17, No Iterations 1
DILUPBiCGStab:  Solving for ILambda_4_0, Initial residual = 0.04934099, Final residual = 0.002511455, No Iterations 3
DILUPBiCGStab:  Solving for ILambda_5_0, Initial residual = 0.045924, Final residual = 0.003427961, No Iterations 5
DILUPBiCGStab:  Solving for ILambda_6_0, Initial residual = 0.06838122, Final residual = 0.004913065, No Iterations 7
DILUPBiCGStab:  Solving for ILambda_7_0, Initial residual = 0.05224752, Final residual = 0.004009172, No Iterations 10
DILUPBiCGStab:  Solving for ILambda_8_0, Initial residual = 0.02158677, Final residual = 4.366569e-17, No Iterations 1
DILUPBiCGStab:  Solving for ILambda_9_0, Initial residual = 0.02635806, Final residual = 5.211098e-17, No Iterations 1
DILUPBiCGStab:  Solving for ILambda_10_0, Initial residual = 0.02701091, Final residual = 6.361359e-17, No Iterations 1
DILUPBiCGStab:  Solving for ILambda_11_0, Initial residual = 0.02516309, Final residual = 7.683032e-17, No Iterations 1
DILUPBiCGStab:  Solving for ILambda_12_0, Initial residual = 0.0296862, Final residual = 0.0001992566, No Iterations 6
DILUPBiCGStab:  Solving for ILambda_13_0, Initial residual = 0.05366207, Final residual = 0.005309639, No Iterations 8
DILUPBiCGStab:  Solving for ILambda_14_0, Initial residual = 0.04119679, Final residual = 0.003740353, No Iterations 13
DILUPBiCGStab:  Solving for ILambda_15_0, Initial residual = 0.05064967, Final residual = 0.004890904, No Iterations 17
Radiation solver iter: 3
DILUPBiCGStab:  Solving for ILambda_0_0, Initial residual = 0.02977955, Final residual = 4.430701e-17, No Iterations 1
DILUPBiCGStab:  Solving for ILambda_1_0, Initial residual = 0.02914849, Final residual = 2.89155e-17, No Iterations 1
DILUPBiCGStab:  Solving for ILambda_2_0, Initial residual = 0.02578375, Final residual = 2.192885e-17, No Iterations 1
DILUPBiCGStab:  Solving for ILambda_3_0, Initial residual = 0.01215817, Final residual = 9.605765e-18, No Iterations 1
DILUPBiCGStab:  Solving for ILambda_4_0, Initial residual = 0.01442018, Final residual = 0.0006907865, No Iterations 2
DILUPBiCGStab:  Solving for ILambda_5_0, Initial residual = 0.02657256, Final residual = 0.00192303, No Iterations 4
DILUPBiCGStab:  Solving for ILambda_6_0, Initial residual = 0.0367188, Final residual = 0.003579178, No Iterations 4
DILUPBiCGStab:  Solving for ILambda_7_0, Initial residual = 0.0406138, Final residual = 0.00371704, No Iterations 6
DILUPBiCGStab:  Solving for ILambda_8_0, Initial residual = 0.01674915, Final residual = 2.133905e-17, No Iterations 1
DILUPBiCGStab:  Solving for ILambda_9_0, Initial residual = 0.01951943, Final residual = 2.870784e-17, No Iterations 1
DILUPBiCGStab:  Solving for ILambda_10_0, Initial residual = 0.01845079, Final residual = 3.520582e-17, No Iterations 1
DILUPBiCGStab:  Solving for ILambda_11_0, Initial residual = 0.01446098, Final residual = 4.152087e-17, No Iterations 1
DILUPBiCGStab:  Solving for ILambda_12_0, Initial residual = 0.01569514, Final residual = 0.0009531031, No Iterations 4
DILUPBiCGStab:  Solving for ILambda_13_0, Initial residual = 0.02675432, Final residual = 0.002270534, No Iterations 8
DILUPBiCGStab:  Solving for ILambda_14_0, Initial residual = 0.02941637, Final residual = 0.00259108, No Iterations 10
DILUPBiCGStab:  Solving for ILambda_15_0, Initial residual = 0.0380328, Final residual = 0.003202377, No Iterations 10
Radiation solver iter: 4
DILUPBiCGStab:  Solving for ILambda_0_0, Initial residual = 0.02436844, Final residual = 3.343531e-17, No Iterations 1
DILUPBiCGStab:  Solving for ILambda_1_0, Initial residual = 0.02232985, Final residual = 1.959147e-17, No Iterations 1
DILUPBiCGStab:  Solving for ILambda_2_0, Initial residual = 0.01659634, Final residual = 1.261087e-17, No Iterations 1
DILUPBiCGStab:  Solving for ILambda_3_0, Initial residual = 0.00478985, Final residual = 3.161283e-18, No Iterations 1
DILUPBiCGStab:  Solving for ILambda_4_0, Initial residual = 0.005433325, Final residual = 0.0004368129, No Iterations 2
DILUPBiCGStab:  Solving for ILambda_5_0, Initial residual = 0.01645987, Final residual = 0.001189882, No Iterations 4
DILUPBiCGStab:  Solving for ILambda_6_0, Initial residual = 0.02735155, Final residual = 0.002365951, No Iterations 3
DILUPBiCGStab:  Solving for ILambda_7_0, Initial residual = 0.03438089, Final residual = 0.003210666, No Iterations 5
DILUPBiCGStab:  Solving for ILambda_8_0, Initial residual = 0.01369327, Final residual = 1.802709e-17, No Iterations 1
DILUPBiCGStab:  Solving for ILambda_9_0, Initial residual = 0.01563219, Final residual = 2.218359e-17, No Iterations 1
DILUPBiCGStab:  Solving for ILambda_10_0, Initial residual = 0.01311541, Final residual = 2.337397e-17, No Iterations 1
DILUPBiCGStab:  Solving for ILambda_11_0, Initial residual = 0.008790284, Final residual = 2.527875e-17, No Iterations 1
DILUPBiCGStab:  Solving for ILambda_12_0, Initial residual = 0.01020342, Final residual = 0.0004107352, No Iterations 4
DILUPBiCGStab:  Solving for ILambda_13_0, Initial residual = 0.01777645, Final residual = 0.001659393, No Iterations 7
DILUPBiCGStab:  Solving for ILambda_14_0, Initial residual = 0.02414963, Final residual = 0.001058246, No Iterations 12
DILUPBiCGStab:  Solving for ILambda_15_0, Initial residual = 0.03144727, Final residual = 0.002466423, No Iterations 9
Radiation solver iter: 5
DILUPBiCGStab:  Solving for ILambda_0_0, Initial residual = 0.02042594, Final residual = 2.693377e-17, No Iterations 1
DILUPBiCGStab:  Solving for ILambda_1_0, Initial residual = 0.01781461, Final residual = 1.572669e-17, No Iterations 1
DILUPBiCGStab:  Solving for ILambda_2_0, Initial residual = 0.01090105, Final residual = 8.551905e-18, No Iterations 1
DILUPBiCGStab:  Solving for ILambda_3_0, Initial residual = 0.001867253, Final residual = 1.137255e-18, No Iterations 1
DILUPBiCGStab:  Solving for ILambda_4_0, Initial residual = 0.002251353, Final residual = 0.0001729807, No Iterations 2
DILUPBiCGStab:  Solving for ILambda_5_0, Initial residual = 0.01096614, Final residual = 0.001003626, No Iterations 3
DILUPBiCGStab:  Solving for ILambda_6_0, Initial residual = 0.02068402, Final residual = 0.001098602, No Iterations 4
DILUPBiCGStab:  Solving for ILambda_7_0, Initial residual = 0.02955839, Final residual = 0.002246696, No Iterations 5
DILUPBiCGStab:  Solving for ILambda_8_0, Initial residual = 0.01171213, Final residual = 1.340713e-17, No Iterations 1
DILUPBiCGStab:  Solving for ILambda_9_0, Initial residual = 0.01260957, Final residual = 1.683396e-17, No Iterations 1
DILUPBiCGStab:  Solving for ILambda_10_0, Initial residual = 0.009424962, Final residual = 1.522801e-17, No Iterations 1
DILUPBiCGStab:  Solving for ILambda_11_0, Initial residual = 0.005766221, Final residual = 1.623401e-17, No Iterations 1
DILUPBiCGStab:  Solving for ILambda_12_0, Initial residual = 0.006505846, Final residual = 0.0005850439, No Iterations 3
DILUPBiCGStab:  Solving for ILambda_13_0, Initial residual = 0.01246214, Final residual = 0.001093317, No Iterations 7
DILUPBiCGStab:  Solving for ILambda_14_0, Initial residual = 0.01910774, Final residual = 0.001895767, No Iterations 7
DILUPBiCGStab:  Solving for ILambda_15_0, Initial residual = 0.027119, Final residual = 0.002174791, No Iterations 6
Radiation solver iter: 6
DILUPBiCGStab:  Solving for ILambda_0_0, Initial residual = 0.01732451, Final residual = 1.957077e-17, No Iterations 1
DILUPBiCGStab:  Solving for ILambda_1_0, Initial residual = 0.01429856, Final residual = 9.40713e-18, No Iterations 1
DILUPBiCGStab:  Solving for ILambda_2_0, Initial residual = 0.007135139, Final residual = 4.13091e-18, No Iterations 1
DILUPBiCGStab:  Solving for ILambda_3_0, Initial residual = 0.0007203705, Final residual = 5.863005e-19, No Iterations 1
DILUPBiCGStab:  Solving for ILambda_4_0, Initial residual = 0.0009485813, Final residual = 9.003651e-05, No Iterations 2
DILUPBiCGStab:  Solving for ILambda_5_0, Initial residual = 0.007220363, Final residual = 0.000561774, No Iterations 3
DILUPBiCGStab:  Solving for ILambda_6_0, Initial residual = 0.01580434, Final residual = 0.001454696, No Iterations 3
DILUPBiCGStab:  Solving for ILambda_7_0, Initial residual = 0.02526074, Final residual = 0.002037966, No Iterations 4
DILUPBiCGStab:  Solving for ILambda_8_0, Initial residual = 0.01008924, Final residual = 1.072706e-17, No Iterations 1
DILUPBiCGStab:  Solving for ILambda_9_0, Initial residual = 0.01002261, Final residual = 1.305176e-17, No Iterations 1
DILUPBiCGStab:  Solving for ILambda_10_0, Initial residual = 0.006998979, Final residual = 1.131967e-17, No Iterations 1
DILUPBiCGStab:  Solving for ILambda_11_0, Initial residual = 0.004180367, Final residual = 1.219334e-17, No Iterations 1
DILUPBiCGStab:  Solving for ILambda_12_0, Initial residual = 0.004815873, Final residual = 0.0003602649, No Iterations 4
DILUPBiCGStab:  Solving for ILambda_13_0, Initial residual = 0.009107684, Final residual = 0.0001995573, No Iterations 9
DILUPBiCGStab:  Solving for ILambda_14_0, Initial residual = 0.01588589, Final residual = 0.0008724293, No Iterations 10
DILUPBiCGStab:  Solving for ILambda_15_0, Initial residual = 0.0231712, Final residual = 0.002299765, No Iterations 7
Radiation solver iter: 7
DILUPBiCGStab:  Solving for ILambda_0_0, Initial residual = 0.01471078, Final residual = 1.501592e-17, No Iterations 1
DILUPBiCGStab:  Solving for ILambda_1_0, Initial residual = 0.01141796, Final residual = 8.079769e-18, No Iterations 1
DILUPBiCGStab:  Solving for ILambda_2_0, Initial residual = 0.00456378, Final residual = 2.454177e-18, No Iterations 1
DILUPBiCGStab:  Solving for ILambda_5_0, Initial residual = 0.004642642, Final residual = 0.0002734791, No Iterations 3
DILUPBiCGStab:  Solving for ILambda_6_0, Initial residual = 0.01239421, Final residual = 0.001048773, No Iterations 2
DILUPBiCGStab:  Solving for ILambda_7_0, Initial residual = 0.02153476, Final residual = 0.001533394, No Iterations 4
DILUPBiCGStab:  Solving for ILambda_8_0, Initial residual = 0.008660886, Final residual = 9.260485e-18, No Iterations 1
DILUPBiCGStab:  Solving for ILambda_9_0, Initial residual = 0.008003658, Final residual = 8.936903e-18, No Iterations 1
DILUPBiCGStab:  Solving for ILambda_10_0, Initial residual = 0.005534889, Final residual = 8.350409e-18, No Iterations 1
DILUPBiCGStab:  Solving for ILambda_11_0, Initial residual = 0.003337412, Final residual = 9.566398e-18, No Iterations 1
DILUPBiCGStab:  Solving for ILambda_12_0, Initial residual = 0.003661685, Final residual = 0.0001955126, No Iterations 4
DILUPBiCGStab:  Solving for ILambda_13_0, Initial residual = 0.007048573, Final residual = 0.0006552443, No Iterations 6
[...]

Time = 3839

DILUPBiCGStab:  Solving for h, Initial residual = 0.0001967037, Final residual = 4.779511e-08, No Iterations 1
limitTemperature limitT Lower limited 0 (0%) of cells, with min limit 280
limitTemperature limitT Upper limited 0 (0%) of cells, with max limit 1200
limitTemperature limitT Unlimited Tmin 417.1387
limitTemperature limitT Unlimited Tmax 509.2634
GAMG:  Solving for p_rgh, Initial residual = 0.0003051535, Final residual = 2.081842e-06, No Iterations 2
limitVelocity limitU Limited 0 (0%) of cells, with max limit 5
time step continuity errors : sum local = 1.101413e-05, global = 3.235492e-18, cumulative = 2.676509e-15
rho min/max : 0.574905 0.9532486
DILUPBiCGStab:  Solving for omega, Initial residual = 8.578075e-05, Final residual = 3.215079e-06, No Iterations 1
DILUPBiCGStab:  Solving for k, Initial residual = 0.0003468441, Final residual = 7.759326e-06, No Iterations 1
ExecutionTime = 14.25 s  ClockTime = 15 s

Time = 3840

DILUPBiCGStab:  Solving for h, Initial residual = 0.0001965831, Final residual = 4.779413e-08, No Iterations 1
limitTemperature limitT Lower limited 0 (0%) of cells, with min limit 280
limitTemperature limitT Upper limited 0 (0%) of cells, with max limit 1200
limitTemperature limitT Unlimited Tmin 417.141
limitTemperature limitT Unlimited Tmax 509.2673
Radiation solver iter: 0
DILUPBiCGStab:  Solving for ILambda_0_0, Initial residual = 0.0001771568, Final residual = 1.41343e-19, No Iterations 1
DILUPBiCGStab:  Solving for ILambda_1_0, Initial residual = 0.0003528298, Final residual = 3.106152e-19, No Iterations 1
DILUPBiCGStab:  Solving for ILambda_2_0, Initial residual = 0.0006008692, Final residual = 5.932406e-19, No Iterations 1
DILUPBiCGStab:  Solving for ILambda_3_0, Initial residual = 0.0006167628, Final residual = 9.780307e-19, No Iterations 1
DILUPBiCGStab:  Solving for ILambda_4_0, Initial residual = 0.0007612641, Final residual = 3.742019e-05, No Iterations 4
DILUPBiCGStab:  Solving for ILambda_5_0, Initial residual = 0.0007341133, Final residual = 8.509397e-05, No Iterations 7
DILUPBiCGStab:  Solving for ILambda_6_0, Initial residual = 0.0007998355, Final residual = 1.387676e-05, No Iterations 13
DILUPBiCGStab:  Solving for ILambda_7_0, Initial residual = 0.0004785093, Final residual = 9.885453e-05, No Iterations 8
DILUPBiCGStab:  Solving for ILambda_8_0, Initial residual = 0.0003987195, Final residual = 1.279341e-18, No Iterations 1
DILUPBiCGStab:  Solving for ILambda_9_0, Initial residual = 0.0003374628, Final residual = 7.475627e-19, No Iterations 1
DILUPBiCGStab:  Solving for ILambda_10_0, Initial residual = 0.0003165096, Final residual = 5.991939e-19, No Iterations 1
DILUPBiCGStab:  Solving for ILambda_11_0, Initial residual = 0.0002531099, Final residual = 6.248373e-19, No Iterations 1
DILUPBiCGStab:  Solving for ILambda_12_0, Initial residual = 0.0002810861, Final residual = 7.068452e-05, No Iterations 2
DILUPBiCGStab:  Solving for ILambda_13_0, Initial residual = 0.000360897, Final residual = 8.752414e-05, No Iterations 4
DILUPBiCGStab:  Solving for ILambda_14_0, Initial residual = 0.0005016613, Final residual = 7.782373e-05, No Iterations 8
DILUPBiCGStab:  Solving for ILambda_15_0, Initial residual = 0.0008325747, Final residual = 9.700824e-05, No Iterations 9
GAMG:  Solving for p_rgh, Initial residual = 0.0003029303, Final residual = 2.013322e-06, No Iterations 2
limitVelocity limitU Limited 0 (0%) of cells, with max limit 5
time step continuity errors : sum local = 1.06843e-05, global = 2.961827e-17, cumulative = 2.706127e-15
rho min/max : 0.575005 0.9532506
DILUPBiCGStab:  Solving for omega, Initial residual = 8.039315e-05, Final residual = 2.773147e-06, No Iterations 1
DILUPBiCGStab:  Solving for k, Initial residual = 0.0003459718, Final residual = 7.62458e-06, No Iterations 1
ExecutionTime = 14.3 s  ClockTime = 15 s

Time = 3841

DILUPBiCGStab:  Solving for h, Initial residual = 0.0001964604, Final residual = 4.775966e-08, No Iterations 1
limitTemperature limitT Lower limited 0 (0%) of cells, with min limit 280
limitTemperature limitT Upper limited 0 (0%) of cells, with max limit 1200
limitTemperature limitT Unlimited Tmin 417.1432
limitTemperature limitT Unlimited Tmax 509.2713
GAMG:  Solving for p_rgh, Initial residual = 0.0003083891, Final residual = 1.969363e-06, No Iterations 2
limitVelocity limitU Limited 0 (0%) of cells, with max limit 5
time step continuity errors : sum local = 1.045396e-05, global = -2.355108e-18, cumulative = 2.703772e-15
rho min/max : 0.5748619 0.9532527
DILUPBiCGStab:  Solving for omega, Initial residual = 8.523555e-05, Final residual = 2.922835e-06, No Iterations 1
DILUPBiCGStab:  Solving for k, Initial residual = 0.000345467, Final residual = 7.385718e-06, No Iterations 1
ExecutionTime = 14.31 s  ClockTime = 15 s

Time = 3842

DILUPBiCGStab:  Solving for h, Initial residual = 0.0001963138, Final residual = 4.775741e-08, No Iterations 1
limitTemperature limitT Lower limited 0 (0%) of cells, with min limit 280
limitTemperature limitT Upper limited 0 (0%) of cells, with max limit 1200
limitTemperature limitT Unlimited Tmin 417.1453
limitTemperature limitT Unlimited Tmax 509.2761
GAMG:  Solving for p_rgh, Initial residual = 0.0003153469, Final residual = 1.935844e-06, No Iterations 2
limitVelocity limitU Limited 0 (0%) of cells, with max limit 5
time step continuity errors : sum local = 1.028524e-05, global = -1.65845e-17, cumulative = 2.687188e-15
rho min/max : 0.5747261 0.9532548
DILUPBiCGStab:  Solving for omega, Initial residual = 8.799234e-05, Final residual = 3.374037e-06, No Iterations 1
DILUPBiCGStab:  Solving for k, Initial residual = 0.0003461752, Final residual = 7.802904e-06, No Iterations 1
ExecutionTime = 14.33 s  ClockTime = 15 s

Time = 3843

DILUPBiCGStab:  Solving for h, Initial residual = 0.000196212, Final residual = 4.776077e-08, No Iterations 1
limitTemperature limitT Lower limited 0 (0%) of cells, with min limit 280
limitTemperature limitT Upper limited 0 (0%) of cells, with max limit 1200
limitTemperature limitT Unlimited Tmin 417.1471
limitTemperature limitT Unlimited Tmax 509.2822
Radiation solver iter: 0
DILUPBiCGStab:  Solving for ILambda_0_0, Initial residual = 0.0001380742, Final residual = 1.402228e-19, No Iterations 1
DILUPBiCGStab:  Solving for ILambda_1_0, Initial residual = 0.0003155268, Final residual = 2.294912e-19, No Iterations 1
DILUPBiCGStab:  Solving for ILambda_2_0, Initial residual = 0.0005819745, Final residual = 5.794091e-19, No Iterations 1
DILUPBiCGStab:  Solving for ILambda_3_0, Initial residual = 0.0007197925, Final residual = 1.517401e-18, No Iterations 1
DILUPBiCGStab:  Solving for ILambda_4_0, Initial residual = 0.0009310999, Final residual = 9.660236e-05, No Iterations 4
DILUPBiCGStab:  Solving for ILambda_5_0, Initial residual = 0.0008739396, Final residual = 8.291106e-05, No Iterations 9
DILUPBiCGStab:  Solving for ILambda_6_0, Initial residual = 0.0007012075, Final residual = 9.097171e-05, No Iterations 11
DILUPBiCGStab:  Solving for ILambda_7_0, Initial residual = 0.0004366294, Final residual = 9.981648e-05, No Iterations 13
DILUPBiCGStab:  Solving for ILambda_8_0, Initial residual = 0.0004684592, Final residual = 1.740526e-18, No Iterations 1
DILUPBiCGStab:  Solving for ILambda_9_0, Initial residual = 0.0004053683, Final residual = 1.220587e-18, No Iterations 1
DILUPBiCGStab:  Solving for ILambda_10_0, Initial residual = 0.0004034208, Final residual = 1.216707e-18, No Iterations 1
DILUPBiCGStab:  Solving for ILambda_11_0, Initial residual = 0.0003670696, Final residual = 1.373165e-18, No Iterations 1
DILUPBiCGStab:  Solving for ILambda_12_0, Initial residual = 0.0004377288, Final residual = 5.700256e-05, No Iterations 3
DILUPBiCGStab:  Solving for ILambda_13_0, Initial residual = 0.0004953736, Final residual = 9.04801e-05, No Iterations 6
DILUPBiCGStab:  Solving for ILambda_14_0, Initial residual = 0.0005667839, Final residual = 9.860145e-05, No Iterations 9
DILUPBiCGStab:  Solving for ILambda_15_0, Initial residual = 0.0009015935, Final residual = 9.718548e-05, No Iterations 12
GAMG:  Solving for p_rgh, Initial residual = 0.0003136591, Final residual = 1.987818e-06, No Iterations 2
limitVelocity limitU Limited 0 (0%) of cells, with max limit 5
time step continuity errors : sum local = 1.050641e-05, global = -4.457384e-18, cumulative = 2.68273e-15
rho min/max : 0.5745977 0.953257
DILUPBiCGStab:  Solving for omega, Initial residual = 8.281976e-05, Final residual = 2.906168e-06, No Iterations 1
DILUPBiCGStab:  Solving for k, Initial residual = 0.0003448098, Final residual = 7.491329e-06, No Iterations 1
ExecutionTime = 14.38 s  ClockTime = 15 s

Time = 3844

DILUPBiCGStab:  Solving for h, Initial residual = 0.0001961436, Final residual = 4.781792e-08, No Iterations 1
limitTemperature limitT Lower limited 0 (0%) of cells, with min limit 280
limitTemperature limitT Upper limited 0 (0%) of cells, with max limit 1200
limitTemperature limitT Unlimited Tmin 417.149
limitTemperature limitT Unlimited Tmax 509.289
GAMG:  Solving for p_rgh, Initial residual = 0.0003094785, Final residual = 2.071431e-06, No Iterations 2
limitVelocity limitU Limited 0 (0%) of cells, with max limit 5
time step continuity errors : sum local = 1.087691e-05, global = 3.309922e-17, cumulative = 2.715829e-15
rho min/max : 0.5742964 0.9532593
DILUPBiCGStab:  Solving for omega, Initial residual = 7.592988e-05, Final residual = 2.433534e-06, No Iterations 1
DILUPBiCGStab:  Solving for k, Initial residual = 0.000345204, Final residual = 7.74393e-06, No Iterations 1
ExecutionTime = 14.4 s  ClockTime = 15 s

Time = 3845

DILUPBiCGStab:  Solving for h, Initial residual = 0.0001959997, Final residual = 4.778134e-08, No Iterations 1
limitTemperature limitT Lower limited 0 (0%) of cells, with min limit 280
limitTemperature limitT Upper limited 0 (0%) of cells, with max limit 1200
limitTemperature limitT Unlimited Tmin 417.1504
limitTemperature limitT Unlimited Tmax 509.2978
GAMG:  Solving for p_rgh, Initial residual = 0.0003036012, Final residual = 2.167886e-06, No Iterations 2
limitVelocity limitU Limited 0 (0%) of cells, with max limit 5
time step continuity errors : sum local = 1.127107e-05, global = -2.942616e-17, cumulative = 2.686403e-15
rho min/max : 0.5740119 0.9532617
DILUPBiCGStab:  Solving for omega, Initial residual = 8.157921e-05, Final residual = 2.559864e-06, No Iterations 1
DILUPBiCGStab:  Solving for k, Initial residual = 0.0003445379, Final residual = 7.423842e-06, No Iterations 1
ExecutionTime = 14.42 s  ClockTime = 15 s

Time = 3846

DILUPBiCGStab:  Solving for h, Initial residual = 0.0001958756, Final residual = 4.775384e-08, No Iterations 1
limitTemperature limitT Lower limited 0 (0%) of cells, with min limit 280
limitTemperature limitT Upper limited 0 (0%) of cells, with max limit 1200
limitTemperature limitT Unlimited Tmin 417.1514
limitTemperature limitT Unlimited Tmax 509.3077
Radiation solver iter: 0
DILUPBiCGStab:  Solving for ILambda_0_0, Initial residual = 0.00019197, Final residual = 1.479217e-19, No Iterations 1
DILUPBiCGStab:  Solving for ILambda_1_0, Initial residual = 0.0004133889, Final residual = 3.292879e-19, No Iterations 1
DILUPBiCGStab:  Solving for ILambda_2_0, Initial residual = 0.0007305486, Final residual = 6.737508e-19, No Iterations 1
DILUPBiCGStab:  Solving for ILambda_3_0, Initial residual = 0.0011656, Final residual = 2.350512e-18, No Iterations 1
DILUPBiCGStab:  Solving for ILambda_4_0, Initial residual = 0.001326547, Final residual = 6.810705e-05, No Iterations 5
DILUPBiCGStab:  Solving for ILambda_5_0, Initial residual = 0.001049918, Final residual = 8.461328e-05, No Iterations 8
DILUPBiCGStab:  Solving for ILambda_6_0, Initial residual = 0.0008018947, Final residual = 9.658036e-06, No Iterations 17
DILUPBiCGStab:  Solving for ILambda_7_0, Initial residual = 0.0005117873, Final residual = 6.490043e-05, No Iterations 20
DILUPBiCGStab:  Solving for ILambda_8_0, Initial residual = 0.0004931412, Final residual = 1.841693e-18, No Iterations 1
DILUPBiCGStab:  Solving for ILambda_9_0, Initial residual = 0.0004462819, Final residual = 1.345933e-18, No Iterations 1
DILUPBiCGStab:  Solving for ILambda_10_0, Initial residual = 0.0004527882, Final residual = 1.348419e-18, No Iterations 1
DILUPBiCGStab:  Solving for ILambda_11_0, Initial residual = 0.0004240076, Final residual = 1.589438e-18, No Iterations 1
DILUPBiCGStab:  Solving for ILambda_12_0, Initial residual = 0.0004693036, Final residual = 6.975626e-05, No Iterations 4
DILUPBiCGStab:  Solving for ILambda_13_0, Initial residual = 0.0005498104, Final residual = 1.440655e-05, No Iterations 9
DILUPBiCGStab:  Solving for ILambda_14_0, Initial residual = 0.0006470451, Final residual = 7.624379e-05, No Iterations 9
DILUPBiCGStab:  Solving for ILambda_15_0, Initial residual = 0.0009551573, Final residual = 9.540382e-05, No Iterations 11
Radiation solver iter: 1
DILUPBiCGStab:  Solving for ILambda_3_0, Initial residual = 0.0005506587, Final residual = 6.46948e-19, No Iterations 1
DILUPBiCGStab:  Solving for ILambda_4_0, Initial residual = 0.0007546247, Final residual = 8.384435e-05, No Iterations 3
DILUPBiCGStab:  Solving for ILambda_5_0, Initial residual = 0.0008272897, Final residual = 7.364376e-05, No Iterations 5
GAMG:  Solving for p_rgh, Initial residual = 0.000301464, Final residual = 2.218463e-06, No Iterations 2
limitVelocity limitU Limited 0 (0%) of cells, with max limit 5
time step continuity errors : sum local = 1.142072e-05, global = -9.960874e-18, cumulative = 2.676442e-15
rho min/max : 0.573743 0.9532642
DILUPBiCGStab:  Solving for omega, Initial residual = 8.243411e-05, Final residual = 2.932384e-06, No Iterations 1
DILUPBiCGStab:  Solving for k, Initial residual = 0.0003461061, Final residual = 8.201814e-06, No Iterations 1
ExecutionTime = 14.48 s  ClockTime = 15 s

Time = 3847

DILUPBiCGStab:  Solving for h, Initial residual = 0.0001958004, Final residual = 4.77483e-08, No Iterations 1
limitTemperature limitT Lower limited 0 (0%) of cells, with min limit 280
limitTemperature limitT Upper limited 0 (0%) of cells, with max limit 1200
limitTemperature limitT Unlimited Tmin 417.1521
limitTemperature limitT Unlimited Tmax 509.3189
GAMG:  Solving for p_rgh, Initial residual = 0.0003031932, Final residual = 2.183613e-06, No Iterations 2
limitVelocity limitU Limited 0 (0%) of cells, with max limit 5
time step continuity errors : sum local = 1.124457e-05, global = 2.819298e-17, cumulative = 2.704635e-15
rho min/max : 0.5739838 0.9532665
DILUPBiCGStab:  Solving for omega, Initial residual = 8.405073e-05, Final residual = 3.033496e-06, No Iterations 1
DILUPBiCGStab:  Solving for k, Initial residual = 0.0003441264, Final residual = 7.420763e-06, No Iterations 1
ExecutionTime = 14.5 s  ClockTime = 15 s

Time = 3848

DILUPBiCGStab:  Solving for h, Initial residual = 0.0001957092, Final residual = 4.775959e-08, No Iterations 1
limitTemperature limitT Lower limited 0 (0%) of cells, with min limit 280
limitTemperature limitT Upper limited 0 (0%) of cells, with max limit 1200
limitTemperature limitT Unlimited Tmin 417.153
limitTemperature limitT Unlimited Tmax 509.3285
GAMG:  Solving for p_rgh, Initial residual = 0.0003060227, Final residual = 2.21795e-06, No Iterations 2
limitVelocity limitU Limited 0 (0%) of cells, with max limit 5
time step continuity errors : sum local = 1.129506e-05, global = 2.30471e-17, cumulative = 2.727682e-15
rho min/max : 0.574211 0.9532689
DILUPBiCGStab:  Solving for omega, Initial residual = 8.62654e-05, Final residual = 3.240062e-06, No Iterations 1
DILUPBiCGStab:  Solving for k, Initial residual = 0.000343944, Final residual = 7.52607e-06, No Iterations 1
ExecutionTime = 14.51 s  ClockTime = 15 s

Time = 3849

DILUPBiCGStab:  Solving for h, Initial residual = 0.0001955491, Final residual = 4.770482e-08, No Iterations 1
limitTemperature limitT Lower limited 0 (0%) of cells, with min limit 280
limitTemperature limitT Upper limited 0 (0%) of cells, with max limit 1200
limitTemperature limitT Unlimited Tmin 417.1538
limitTemperature limitT Unlimited Tmax 509.3368
Radiation solver iter: 0
DILUPBiCGStab:  Solving for ILambda_0_0, Initial residual = 0.0001752034, Final residual = 1.842518e-19, No Iterations 1
DILUPBiCGStab:  Solving for ILambda_1_0, Initial residual = 0.0004276964, Final residual = 3.61406e-19, No Iterations 1
DILUPBiCGStab:  Solving for ILambda_2_0, Initial residual = 0.0007979727, Final residual = 9.402328e-19, No Iterations 1
DILUPBiCGStab:  Solving for ILambda_3_0, Initial residual = 0.001194827, Final residual = 2.675561e-18, No Iterations 1
DILUPBiCGStab:  Solving for ILambda_4_0, Initial residual = 0.001443752, Final residual = 7.664613e-05, No Iterations 4
DILUPBiCGStab:  Solving for ILambda_5_0, Initial residual = 0.001241374, Final residual = 5.304236e-05, No Iterations 10
DILUPBiCGStab:  Solving for ILambda_6_0, Initial residual = 0.0008621566, Final residual = 9.205235e-06, No Iterations 17
DILUPBiCGStab:  Solving for ILambda_7_0, Initial residual = 0.0005251385, Final residual = 8.527787e-05, No Iterations 24
DILUPBiCGStab:  Solving for ILambda_8_0, Initial residual = 0.0003943898, Final residual = 9.919761e-19, No Iterations 1
DILUPBiCGStab:  Solving for ILambda_9_0, Initial residual = 0.0003450289, Final residual = 7.185316e-19, No Iterations 1
DILUPBiCGStab:  Solving for ILambda_10_0, Initial residual = 0.0003473022, Final residual = 8.641206e-19, No Iterations 1
DILUPBiCGStab:  Solving for ILambda_11_0, Initial residual = 0.0003238223, Final residual = 1.009e-18, No Iterations 1
DILUPBiCGStab:  Solving for ILambda_12_0, Initial residual = 0.0003974387, Final residual = 9.844395e-05, No Iterations 3
DILUPBiCGStab:  Solving for ILambda_13_0, Initial residual = 0.0004291962, Final residual = 8.367714e-05, No Iterations 6
DILUPBiCGStab:  Solving for ILambda_14_0, Initial residual = 0.0005720072, Final residual = 9.784349e-05, No Iterations 9
DILUPBiCGStab:  Solving for ILambda_15_0, Initial residual = 0.0009437894, Final residual = 9.521773e-05, No Iterations 15
Radiation solver iter: 1
DILUPBiCGStab:  Solving for ILambda_3_0, Initial residual = 0.0005792822, Final residual = 7.351586e-19, No Iterations 1
DILUPBiCGStab:  Solving for ILambda_4_0, Initial residual = 0.0007765032, Final residual = 9.644223e-05, No Iterations 3
DILUPBiCGStab:  Solving for ILambda_5_0, Initial residual = 0.0008287537, Final residual = 8.295123e-05, No Iterations 6
GAMG:  Solving for p_rgh, Initial residual = 0.000307388, Final residual = 2.208202e-06, No Iterations 2
limitVelocity limitU Limited 0 (0%) of cells, with max limit 5
time step continuity errors : sum local = 1.118042e-05, global = 1.922223e-19, cumulative = 2.727875e-15
rho min/max : 0.5744256 0.9532713
DILUPBiCGStab:  Solving for omega, Initial residual = 8.586636e-05, Final residual = 3.201962e-06, No Iterations 1
DILUPBiCGStab:  Solving for k, Initial residual = 0.0003438194, Final residual = 7.417913e-06, No Iterations 1
ExecutionTime = 14.58 s  ClockTime = 15 s

Time = 3850

DILUPBiCGStab:  Solving for h, Initial residual = 0.0001953751, Final residual = 4.766911e-08, No Iterations 1
limitTemperature limitT Lower limited 0 (0%) of cells, with min limit 280
limitTemperature limitT Upper limited 0 (0%) of cells, with max limit 1200
limitTemperature limitT Unlimited Tmin 417.1547
limitTemperature limitT Unlimited Tmax 509.3436
GAMG:  Solving for p_rgh, Initial residual = 0.0003074571, Final residual = 2.211584e-06, No Iterations 2
limitVelocity limitU Limited 0 (0%) of cells, with max limit 5
time step continuity errors : sum local = 1.104821e-05, global = 1.835902e-17, cumulative = 2.746234e-15
rho min/max : 0.5746313 0.9532735
DILUPBiCGStab:  Solving for omega, Initial residual = 8.321903e-05, Final residual = 2.776806e-06, No Iterations 1
DILUPBiCGStab:  Solving for k, Initial residual = 0.000344561, Final residual = 8.098522e-06, No Iterations 1
ExecutionTime = 14.59 s  ClockTime = 15 s

End

