/*---------------------------------------------------------------------------*\
| =========                 |                                                 |
| \\      /  F ield         | OpenFOAM: The Open Source CFD Toolbox           |
|  \\    /   O peration     | Version:  2312                                  |
|   \\  /    A nd           | Website:  www.openfoam.com                      |
|    \\/     M anipulation  |                                                 |
\*---------------------------------------------------------------------------*/
Build  : _c39a0f64-20231220 OPENFOAM=2312 version=2312
Arch   : "LSB;label=32;scalar=64"
Exec   : buoyantSimpleFoam
Date   : Jul 02 2026
Time   : 08:35:55
Host   : 017fb7ec67dd
PID    : 231
I/O    : uncollated
Case   : /case
nProcs : 1
trapFpe: Floating point exception trapping enabled (FOAM_SIGFPE).
fileModificationChecking : Monitoring run-time modified files using timeStampMaster (fileModificationSkew 5, maxFileModificationPolls 20)
allowSystemOperations : Allowing user-supplied system call operations

// * * * * * * * * * * * * * * * * * * * * * * * * * * * * * * * * * * * * * //
Create time

Create mesh for time = 1000


SIMPLE: convergence criteria
    field p_rgh	 tolerance 0.0001
    field U	 tolerance 0.0001
    field h	 tolerance 0.0001
    field "(k|omega)"	 tolerance 0.001

Reading thermophysical properties

Selecting thermodynamics package 
{
    type            heRhoThermo;
    mixture         pureMixture;
    transport       const;
    thermo          hConst;
    equationOfState perfectGas;
    specie          specie;
    energy          sensibleEnthalpy;
}

Reading field U

Reading/calculating face flux field phi

Creating turbulence model

Selecting turbulence model type RAS
Selecting RAS turbulence model kOmegaSST
Selecting patchDistMethod meshWave
RAS
{
    RASModel        kOmegaSST;
    turbulence      on;
    printCoeffs     on;
    alphaK1         0.85;
    alphaK2         1;
    alphaOmega1     0.5;
    alphaOmega2     0.856;
    gamma1          0.5555556;
    gamma2          0.44;
    beta1           0.075;
    beta2           0.0828;
    betaStar        0.09;
    a1              0.31;
    b1              1;
    c1              10;
    F3              false;
    decayControl    false;
    kInf            0;
    omegaInf        0;
}


Reading g

Reading hRef
Calculating field g.h

Reading field p_rgh

No MRF models present

Selecting radiationModel fvDOM
Selecting absorptionEmissionModel constantAbsorptionEmission
Selecting scatterModel none
Selecting sootModel none
fvDOM : Allocated 16 rays with average orientation:
	I0 : dAve : 	(0.1195698 0.6011177 2.944771e-33) : omega : 	0.7853982 : d : 	(0.1950903 0.9807853 6.123234e-17)
	I1 : dAve : 	(0.3405058 0.509603 2.944771e-33) : omega : 	0.7853982 : d : 	(0.5555702 0.8314696 6.123234e-17)
	I2 : dAve : 	(0.509603 0.3405058 2.944771e-33) : omega : 	0.7853982 : d : 	(0.8314696 0.5555702 6.123234e-17)
	I3 : dAve : 	(0.6011177 0.1195698 2.944771e-33) : omega : 	0.7853982 : d : 	(0.9807853 0.1950903 6.123234e-17)
	I4 : dAve : 	(0.6011177 -0.1195698 2.944771e-33) : omega : 	0.7853982 : d : 	(0.9807853 -0.1950903 6.123234e-17)
	I5 : dAve : 	(0.509603 -0.3405058 2.944771e-33) : omega : 	0.7853982 : d : 	(0.8314696 -0.5555702 6.123234e-17)
	I6 : dAve : 	(0.3405058 -0.509603 2.944771e-33) : omega : 	0.7853982 : d : 	(0.5555702 -0.8314696 6.123234e-17)
	I7 : dAve : 	(0.1195698 -0.6011177 2.944771e-33) : omega : 	0.7853982 : d : 	(0.1950903 -0.9807853 6.123234e-17)
	I8 : dAve : 	(-0.1195698 -0.6011177 2.944771e-33) : omega : 	0.7853982 : d : 	(-0.1950903 -0.9807853 6.123234e-17)
	I9 : dAve : 	(-0.3405058 -0.509603 2.944771e-33) : omega : 	0.7853982 : d : 	(-0.5555702 -0.8314696 6.123234e-17)
	I10 : dAve : 	(-0.509603 -0.3405058 2.944771e-33) : omega : 	0.7853982 : d : 	(-0.8314696 -0.5555702 6.123234e-17)
	I11 : dAve : 	(-0.6011177 -0.1195698 2.944771e-33) : omega : 	0.7853982 : d : 	(-0.9807853 -0.1950903 6.123234e-17)
	I12 : dAve : 	(-0.6011177 0.1195698 2.944771e-33) : omega : 	0.7853982 : d : 	(-0.9807853 0.1950903 6.123234e-17)
	I13 : dAve : 	(-0.509603 0.3405058 2.944771e-33) : omega : 	0.7853982 : d : 	(-0.8314696 0.5555702 6.123234e-17)
	I14 : dAve : 	(-0.3405058 0.509603 2.944771e-33) : omega : 	0.7853982 : d : 	(-0.5555702 0.8314696 6.123234e-17)
	I15 : dAve : 	(-0.1195698 0.6011177 2.944771e-33) : omega : 	0.7853982 : d : 	(-0.1950903 0.9807853 6.123234e-17)
Total omega : 12.56637

Creating finite volume options from "system/fvOptions"

Selecting finite volume options type limitTemperature
    Source: limitT
    - selecting all cells
    - selected 12000 cell(s) with volume 0.473422
Selecting finite volume options type limitVelocity
    Source: limitU
    - selecting all cells
    - selected 12000 cell(s) with volume 0.473422

Starting time loop

surfaceFieldValue wallT:
    operation     = areaAverage


surfaceFieldValue wallTriser:
    operation     = areaAverage


Time = 1001

DILUPBiCGStab:  Solving for h, Initial residual = 1, Final residual = 8.366392e-06, No Iterations 1
limitTemperature limitT Lower limited 0 (0%) of cells, with min limit 280
limitTemperature limitT Upper limited 0 (0%) of cells, with max limit 1200
limitTemperature limitT Unlimited Tmin 450
limitTemperature limitT Unlimited Tmax 450
Radiation solver iter: 0
Selecting boundary radiation Model: lookup
Selecting boundary radiation Model: lookup
Selecting boundary radiation Model: lookup
DILUPBiCGStab:  Solving for ILambda_0_0, Initial residual = 0.4999878, Final residual = 4.491447e-15, No Iterations 1
DILUPBiCGStab:  Solving for ILambda_1_0, Initial residual = 0.7297476, Final residual = 4.832343e-15, No Iterations 1
DILUPBiCGStab:  Solving for ILambda_2_0, Initial residual = 0.8480584, Final residual = 4.631468e-15, No Iterations 1
DILUPBiCGStab:  Solving for ILambda_3_0, Initial residual = 0.9376104, Final residual = 4.889175e-15, No Iterations 1
DILUPBiCGStab:  Solving for ILambda_4_0, Initial residual = 0.9466768, Final residual = 0.04734701, No Iterations 4
DILUPBiCGStab:  Solving for ILambda_5_0, Initial residual = 0.8727603, Final residual = 0.0739282, No Iterations 11
DILUPBiCGStab:  Solving for ILambda_6_0, Initial residual = 0.7714753, Final residual = 0.001231289, No Iterations 19
DILUPBiCGStab:  Solving for ILambda_7_0, Initial residual = 0.5641343, Final residual = 0.02590569, No Iterations 32
DILUPBiCGStab:  Solving for ILambda_8_0, Initial residual = 0.6628266, Final residual = 3.974922e-15, No Iterations 1
DILUPBiCGStab:  Solving for ILambda_9_0, Initial residual = 0.7686006, Final residual = 4.277793e-15, No Iterations 1
DILUPBiCGStab:  Solving for ILambda_10_0, Initial residual = 0.8349452, Final residual = 4.216512e-15, No Iterations 1
DILUPBiCGStab:  Solving for ILambda_11_0, Initial residual = 0.8791065, Final residual = 4.301712e-15, No Iterations 1
DILUPBiCGStab:  Solving for ILambda_12_0, Initial residual = 0.8944828, Final residual = 0.06722563, No Iterations 4
DILUPBiCGStab:  Solving for ILambda_13_0, Initial residual = 0.8731677, Final residual = 0.01025006, No Iterations 10
DILUPBiCGStab:  Solving for ILambda_14_0, Initial residual = 0.8382495, Final residual = 0.02720618, No Iterations 17
DILUPBiCGStab:  Solving for ILambda_15_0, Initial residual = 0.7693754, Final residual = 0.004376533, No Iterations 35
Radiation solver iter: 1
DILUPBiCGStab:  Solving for ILambda_0_0, Initial residual = 0.07729215, Final residual = 2.897591e-16, No Iterations 1
DILUPBiCGStab:  Solving for ILambda_1_0, Initial residual = 0.07194607, Final residual = 1.870768e-16, No Iterations 1
DILUPBiCGStab:  Solving for ILambda_2_0, Initial residual = 0.06047232, Final residual = 1.604781e-16, No Iterations 1
DILUPBiCGStab:  Solving for ILambda_3_0, Initial residual = 0.04477964, Final residual = 1.524714e-16, No Iterations 1
DILUPBiCGStab:  Solving for ILambda_4_0, Initial residual = 0.09251383, Final residual = 0.005759275, No Iterations 3
DILUPBiCGStab:  Solving for ILambda_5_0, Initial residual = 0.1286214, Final residual = 0.008114363, No Iterations 9
DILUPBiCGStab:  Solving for ILambda_6_0, Initial residual = 0.06317657, Final residual = 0.006063834, No Iterations 12
DILUPBiCGStab:  Solving for ILambda_7_0, Initial residual = 0.06256024, Final residual = 0.005906646, No Iterations 14
DILUPBiCGStab:  Solving for ILambda_8_0, Initial residual = 0.08425977, Final residual = 3.005093e-16, No Iterations 1
DILUPBiCGStab:  Solving for ILambda_9_0, Initial residual = 0.07220422, Final residual = 2.549007e-16, No Iterations 1
DILUPBiCGStab:  Solving for ILambda_10_0, Initial residual = 0.06610462, Final residual = 2.172425e-16, No Iterations 1
DILUPBiCGStab:  Solving for ILambda_11_0, Initial residual = 0.05896713, Final residual = 2.235655e-16, No Iterations 1
DILUPBiCGStab:  Solving for ILambda_12_0, Initial residual = 0.1285915, Final residual = 0.00912885, No Iterations 3
DILUPBiCGStab:  Solving for ILambda_13_0, Initial residual = 0.07089977, Final residual = 0.002583812, No Iterations 8
DILUPBiCGStab:  Solving for ILambda_14_0, Initial residual = 0.09267891, Final residual = 0.008339932, No Iterations 12
DILUPBiCGStab:  Solving for ILambda_15_0, Initial residual = 0.0908735, Final residual = 0.007275305, No Iterations 22
Radiation solver iter: 2
DILUPBiCGStab:  Solving for ILambda_0_0, Initial residual = 0.04778479, Final residual = 1.056505e-16, No Iterations 1
DILUPBiCGStab:  Solving for ILambda_1_0, Initial residual = 0.03983686, Final residual = 5.283381e-17, No Iterations 1
DILUPBiCGStab:  Solving for ILambda_2_0, Initial residual = 0.03019052, Final residual = 3.072083e-17, No Iterations 1
DILUPBiCGStab:  Solving for ILambda_3_0, Initial residual = 0.01585602, Final residual = 1.716643e-17, No Iterations 1
DILUPBiCGStab:  Solving for ILambda_4_0, Initial residual = 0.02174608, Final residual = 0.00156991, No Iterations 3
DILUPBiCGStab:  Solving for ILambda_5_0, Initial residual = 0.04360253, Final residual = 0.003111023, No Iterations 5
DILUPBiCGStab:  Solving for ILambda_6_0, Initial residual = 0.04517695, Final residual = 0.003292356, No Iterations 7
DILUPBiCGStab:  Solving for ILambda_7_0, Initial residual = 0.04021002, Final residual = 0.0029848, No Iterations 10
DILUPBiCGStab:  Solving for ILambda_8_0, Initial residual = 0.05023491, Final residual = 8.498284e-17, No Iterations 1
DILUPBiCGStab:  Solving for ILambda_9_0, Initial residual = 0.04244401, Final residual = 6.656109e-17, No Iterations 1
DILUPBiCGStab:  Solving for ILambda_10_0, Initial residual = 0.03537618, Final residual = 6.470709e-17, No Iterations 1
DILUPBiCGStab:  Solving for ILambda_11_0, Initial residual = 0.02563653, Final residual = 6.873267e-17, No Iterations 1
DILUPBiCGStab:  Solving for ILambda_12_0, Initial residual = 0.03378233, Final residual = 0.0001058816, No Iterations 5
DILUPBiCGStab:  Solving for ILambda_13_0, Initial residual = 0.03290975, Final residual = 0.001612876, No Iterations 9
DILUPBiCGStab:  Solving for ILambda_14_0, Initial residual = 0.0439332, Final residual = 0.004067035, No Iterations 11
DILUPBiCGStab:  Solving for ILambda_15_0, Initial residual = 0.0524432, Final residual = 0.005189476, No Iterations 11
Radiation solver iter: 3
DILUPBiCGStab:  Solving for ILambda_0_0, Initial residual = 0.0349846, Final residual = 6.341894e-17, No Iterations 1
DILUPBiCGStab:  Solving for ILambda_1_0, Initial residual = 0.02745214, Final residual = 2.76881e-17, No Iterations 1
DILUPBiCGStab:  Solving for ILambda_2_0, Initial residual = 0.01868807, Final residual = 1.580776e-17, No Iterations 1
DILUPBiCGStab:  Solving for ILambda_3_0, Initial residual = 0.006105808, Final residual = 4.904854e-18, No Iterations 1
DILUPBiCGStab:  Solving for ILambda_4_0, Initial residual = 0.007823835, Final residual = 0.0007296297, No Iterations 2
DILUPBiCGStab:  Solving for ILambda_5_0, Initial residual = 0.02468818, Final residual = 0.002115113, No Iterations 4
DILUPBiCGStab:  Solving for ILambda_6_0, Initial residual = 0.03383936, Final residual = 0.003113739, No Iterations 4
DILUPBiCGStab:  Solving for ILambda_7_0, Initial residual = 0.0301415, Final residual = 0.00262608, No Iterations 6
DILUPBiCGStab:  Solving for ILambda_8_0, Initial residual = 0.04051831, Final residual = 5.939489e-17, No Iterations 1
DILUPBiCGStab:  Solving for ILambda_9_0, Initial residual = 0.03515084, Final residual = 4.756171e-17, No Iterations 1
DILUPBiCGStab:  Solving for ILambda_10_0, Initial residual = 0.02748104, Final residual = 4.69932e-17, No Iterations 1
DILUPBiCGStab:  Solving for ILambda_11_0, Initial residual = 0.01758686, Final residual = 4.792237e-17, No Iterations 1
DILUPBiCGStab:  Solving for ILambda_12_0, Initial residual = 0.01741892, Final residual = 0.001154254, No Iterations 4
DILUPBiCGStab:  Solving for ILambda_13_0, Initial residual = 0.02653487, Final residual = 0.002568063, No Iterations 8
DILUPBiCGStab:  Solving for ILambda_14_0, Initial residual = 0.03322279, Final residual = 0.003295134, No Iterations 9
DILUPBiCGStab:  Solving for ILambda_15_0, Initial residual = 0.03956618, Final residual = 0.003486097, No Iterations 9
Radiation solver iter: 4
DILUPBiCGStab:  Solving for ILambda_0_0, Initial residual = 0.02758797, Final residual = 4.328995e-17, No Iterations 1
DILUPBiCGStab:  Solving for ILambda_1_0, Initial residual = 0.0207977, Final residual = 1.965662e-17, No Iterations 1
DILUPBiCGStab:  Solving for ILambda_2_0, Initial residual = 0.01225466, Final residual = 9.515319e-18, No Iterations 1
DILUPBiCGStab:  Solving for ILambda_3_0, Initial residual = 0.00256882, Final residual = 2.246069e-18, No Iterations 1
DILUPBiCGStab:  Solving for ILambda_4_0, Initial residual = 0.003116415, Final residual = 0.0002789526, No Iterations 2
DILUPBiCGStab:  Solving for ILambda_5_0, Initial residual = 0.01646847, Final residual = 0.001354241, No Iterations 4
DILUPBiCGStab:  Solving for ILambda_6_0, Initial residual = 0.02702995, Final residual = 0.002604803, No Iterations 3
DILUPBiCGStab:  Solving for ILambda_7_0, Initial residual = 0.02491004, Final residual = 0.002169922, No Iterations 5
DILUPBiCGStab:  Solving for ILambda_8_0, Initial residual = 0.0339973, Final residual = 4.089477e-17, No Iterations 1
DILUPBiCGStab:  Solving for ILambda_9_0, Initial residual = 0.02918672, Final residual = 3.757755e-17, No Iterations 1
DILUPBiCGStab:  Solving for ILambda_10_0, Initial residual = 0.0204977, Final residual = 3.349034e-17, No Iterations 1
DILUPBiCGStab:  Solving for ILambda_11_0, Initial residual = 0.01157748, Final residual = 3.085973e-17, No Iterations 1
DILUPBiCGStab:  Solving for ILambda_12_0, Initial residual = 0.01130652, Final residual = 0.001021278, No Iterations 4
DILUPBiCGStab:  Solving for ILambda_13_0, Initial residual = 0.0208559, Final residual = 0.001732047, No Iterations 7
DILUPBiCGStab:  Solving for ILambda_14_0, Initial residual = 0.02770692, Final residual = 0.002403023, No Iterations 8
DILUPBiCGStab:  Solving for ILambda_15_0, Initial residual = 0.03256557, Final residual = 0.001762913, No Iterations 9
Radiation solver iter: 5
DILUPBiCGStab:  Solving for ILambda_0_0, Initial residual = 0.02283016, Final residual = 3.239662e-17, No Iterations 1
DILUPBiCGStab:  Solving for ILambda_1_0, Initial residual = 0.0165487, Final residual = 1.28152e-17, No Iterations 1
DILUPBiCGStab:  Solving for ILambda_2_0, Initial residual = 0.008302893, Final residual = 6.606681e-18, No Iterations 1
DILUPBiCGStab:  Solving for ILambda_3_0, Initial residual = 0.00100234, Final residual = 8.05488e-19, No Iterations 1
DILUPBiCGStab:  Solving for ILambda_4_0, Initial residual = 0.001196758, Final residual = 5.931437e-05, No Iterations 2
DILUPBiCGStab:  Solving for ILambda_5_0, Initial residual = 0.01105157, Final residual = 0.0004350009, No Iterations 4
DILUPBiCGStab:  Solving for ILambda_6_0, Initial residual = 0.02208714, Final residual = 0.002166153, No Iterations 4
DILUPBiCGStab:  Solving for ILambda_7_0, Initial residual = 0.02161822, Final residual = 0.002083905, No Iterations 4
DILUPBiCGStab:  Solving for ILambda_8_0, Initial residual = 0.02923016, Final residual = 3.183642e-17, No Iterations 1
DILUPBiCGStab:  Solving for ILambda_9_0, Initial residual = 0.02411897, Final residual = 2.823348e-17, No Iterations 1
DILUPBiCGStab:  Solving for ILambda_10_0, Initial residual = 0.01507147, Final residual = 2.470322e-17, No Iterations 1
DILUPBiCGStab:  Solving for ILambda_11_0, Initial residual = 0.007754436, Final residual = 2.046587e-17, No Iterations 1
DILUPBiCGStab:  Solving for ILambda_12_0, Initial residual = 0.007461207, Final residual = 0.0005632808, No Iterations 4
DILUPBiCGStab:  Solving for ILambda_13_0, Initial residual = 0.01501014, Final residual = 0.001038724, No Iterations 8
DILUPBiCGStab:  Solving for ILambda_14_0, Initial residual = 0.02274497, Final residual = 0.00214742, No Iterations 7
DILUPBiCGStab:  Solving for ILambda_15_0, Initial residual = 0.02692178, Final residual = 0.002523046, No Iterations 5
Radiation solver iter: 6
DILUPBiCGStab:  Solving for ILambda_0_0, Initial residual = 0.01927393, Final residual = 2.42358e-17, No Iterations 1
DILUPBiCGStab:  Solving for ILambda_1_0, Initial residual = 0.01330678, Final residual = 8.613505e-18, No Iterations 1
DILUPBiCGStab:  Solving for ILambda_2_0, Initial residual = 0.005583549, Final residual = 3.721699e-18, No Iterations 1
DILUPBiCGStab:  Solving for ILambda_3_0, Initial residual = 0.0003982116, Final residual = 3.80254e-19, No Iterations 1
DILUPBiCGStab:  Solving for ILambda_4_0, Initial residual = 0.0004671756, Final residual = 9.18445e-05, No Iterations 1
DILUPBiCGStab:  Solving for ILambda_5_0, Initial residual = 0.007468501, Final residual = 0.0007061486, No Iterations 3
DILUPBiCGStab:  Solving for ILambda_6_0, Initial residual = 0.0179774, Final residual = 0.0006469726, No Iterations 4
DILUPBiCGStab:  Solving for ILambda_7_0, Initial residual = 0.01884576, Final residual = 0.001379625, No Iterations 5
DILUPBiCGStab:  Solving for ILambda_8_0, Initial residual = 0.02539846, Final residual = 2.827684e-17, No Iterations 1
DILUPBiCGStab:  Solving for ILambda_9_0, Initial residual = 0.019832, Final residual = 2.162472e-17, No Iterations 1
DILUPBiCGStab:  Solving for ILambda_10_0, Initial residual = 0.011467, Final residual = 1.633423e-17, No Iterations 1
DILUPBiCGStab:  Solving for ILambda_11_0, Initial residual = 0.005801734, Final residual = 1.553142e-17, No Iterations 1
DILUPBiCGStab:  Solving for ILambda_12_0, Initial residual = 0.005541419, Final residual = 0.0003800812, No Iterations 4
DILUPBiCGStab:  Solving for ILambda_13_0, Initial residual = 0.01132805, Final residual = 0.0005009466, No Iterations 8
DILUPBiCGStab:  Solving for ILambda_14_0, Initial residual = 0.01875962, Final residual = 0.0008813916, No Iterations 9
DILUPBiCGStab:  Solving for ILambda_15_0, Initial residual = 0.02324672, Final residual = 0.002041164, No Iterations 5
Radiation solver iter: 7
DILUPBiCGStab:  Solving for ILambda_0_0, Initial residual = 0.01640875, Final residual = 1.78467e-17, No Iterations 1
DILUPBiCGStab:  Solving for ILambda_1_0, Initial residual = 0.01070583, Final residual = 7.363065e-18, No Iterations 1
DILUPBiCGStab:  Solving for ILambda_2_0, Initial residual = 0.00367474, Final residual = 1.909117e-18, No Iterations 1
DILUPBiCGStab:  Solving for ILambda_5_0, Initial residual = 0.004883875, Final residual = 0.0003966293, No Iterations 3
DILUPBiCGStab:  Solving for ILambda_6_0, Initial residual = 0.01429282, Final residual = 0.001224002, No Iterations 2
DILUPBiCGStab:  Solving for ILambda_7_0, Initial residual = 0.0162147, Final residual = 0.0004245495, No Iterations 6
DILUPBiCGStab:  Solving for ILambda_8_0, Initial residual = 0.02191187, Final residual = 2.227491e-17, No Iterations 1
DILUPBiCGStab:  Solving for ILambda_9_0, Initial residual = 0.01616864, Final residual = 1.678749e-17, No Iterations 1
DILUPBiCGStab:  Solving for ILambda_10_0, Initial residual = 0.0090934, Final residual = 1.214091e-17, No Iterations 1
DILUPBiCGStab:  Solving for ILambda_11_0, Initial residual = 0.004578605, Final residual = 1.25333e-17, No Iterations 1
DILUPBiCGStab:  Solving for ILambda_12_0, Initial residual = 0.004457304, Final residual = 0.000285075, No Iterations 4
DILUPBiCGStab:  Solving for ILambda_13_0, Initial residual = 0.008902241, Final residual = 0.000750695, No Iterations 7
DILUPBiCGStab:  Solving for ILambda_14_0, Initial residual = 0.01524424, Final residual = 0.0009780149, No Iterations 10
DILUPBiCGStab:  Solving for ILambda_15_0, Initial residual = 0.01977383, Final residual = 0.001739584, No Iterations 5
Radiation solver iter: 8
DILUPBiCGStab:  Solving for ILambda_0_0, Initial residual = 0.01400374, Final residual = 1.519392e-17, No Iterations 1
DILUPBiCGStab:  Solving for ILambda_1_0, Initial residual = 0.008582042, Final residual = 4.844666e-18, No Iterations 1
DILUPBiCGStab:  Solving for ILambda_2_0, Initial residual = 0.002345199, Final residual = 1.309454e-18, No Iterations 1
DILUPBiCGStab:  Solving for ILambda_5_0, Initial residual = 0.003161315, Final residual = 0.0002186475, No Iterations 3
DILUPBiCGStab:  Solving for ILambda_6_0, Initial residual = 0.01150504, Final residual = 0.0008220607, No Iterations 2
DILUPBiCGStab:  Solving for ILambda_7_0, Initial residual = 0.01387057, Final residual = 0.001034803, No Iterations 3
DILUPBiCGStab:  Solving for ILambda_8_0, Initial residual = 0.01882087, Final residual = 1.701003e-17, No Iterations 1
DILUPBiCGStab:  Solving for ILambda_9_0, Initial residual = 0.01324745, Final residual = 1.289252e-17, No Iterations 1
DILUPBiCGStab:  Solving for ILambda_10_0, Initial residual = 0.007614172, Final residual = 1.01729e-17, No Iterations 1
DILUPBiCGStab:  Solving for ILambda_11_0, Initial residual = 0.003761278, Final residual = 9.90283e-18, No Iterations 1
DILUPBiCGStab:  Solving for ILambda_12_0, Initial residual = 0.003651714, Final residual = 0.0002510115, No Iterations 4
DILUPBiCGStab:  Solving for ILambda_13_0, Initial residual = 0.007564762, Final residual = 0.0007137772, No Iterations 6
DILUPBiCGStab:  Solving for ILambda_14_0, Initial residual = 0.01262191, Final residual = 0.00101914, No Iterations 6
DILUPBiCGStab:  Solving for ILambda_15_0, Initial residual = 0.0168884, Final residual = 0.001490813, No Iterations 6
Radiation solver iter: 9
DILUPBiCGStab:  Solving for ILambda_0_0, Initial residual = 0.01197725, Final residual = 1.212668e-17, No Iterations 1
DILUPBiCGStab:  Solving for ILambda_1_0, Initial residual = 0.006806676, Final residual = 3.589531e-18, No Iterations 1
DILUPBiCGStab:  Solving for ILambda_2_0, Initial residual = 0.001461446, Final residual = 6.772018e-19, No Iterations 1
DILUPBiCGStab:  Solving for ILambda_5_0, Initial residual = 0.001991254, Final residual = 0.0001223385, No Iterations 3
DILUPBiCGStab:  Solving for ILambda_6_0, Initial residual = 0.009096331, Final residual = 0.0006014178, No Iterations 2
DILUPBiCGStab:  Solving for ILambda_7_0, Initial residual = 0.01210664, Final residual = 0.0005460687, No Iterations 4
DILUPBiCGStab:  Solving for ILambda_8_0, Initial residual = 0.01618613, Final residual = 1.292351e-17, No Iterations 1
DILUPBiCGStab:  Solving for ILambda_9_0, Initial residual = 0.01102984, Final residual = 9.386257e-18, No Iterations 1
DILUPBiCGStab:  Solving for ILambda_10_0, Initial residual = 0.006460501, Final residual = 8.117876e-18, No Iterations 1
DILUPBiCGStab:  Solving for ILambda_11_0, Initial residual = 0.003087729, Final residual = 7.937993e-18, No Iterations 1
DILUPBiCGStab:  Solving for ILambda_12_0, Initial residual = 0.003020496, Final residual = 0.0002498819, No Iterations 4
DILUPBiCGStab:  Solving for ILambda_13_0, Initial residual = 0.006524825, Final residual = 0.0006211215, No Iterations 6
DILUPBiCGStab:  Solving for ILambda_14_0, Initial residual = 0.0107492, Final residual = 0.0006864193, No Iterations 6
DILUPBiCGStab:  Solving for ILambda_15_0, Initial residual = 0.01427501, Final residual = 0.001270569, No Iterations 5
Radiation solver iter: 10
DILUPBiCGStab:  Solving for ILambda_0_0, Initial residual = 0.0102263, Final residual = 8.908326e-18, No Iterations 1
DILUPBiCGStab:  Solving for ILambda_1_0, Initial residual = 0.005342652, Final residual = 2.734227e-18, No Iterations 1
DILUPBiCGStab:  Solving for ILambda_2_0, Initial residual = 0.0008797782, Final residual = 4.698797e-19, No Iterations 1
DILUPBiCGStab:  Solving for ILambda_5_0, Initial residual = 0.001218036, Final residual = 6.674839e-05, No Iterations 3
DILUPBiCGStab:  Solving for ILambda_6_0, Initial residual = 0.007102785, Final residual = 0.0004404571, No Iterations 2
DILUPBiCGStab:  Solving for ILambda_7_0, Initial residual = 0.01044996, Final residual = 0.001010391, No Iterations 2
DILUPBiCGStab:  Solving for ILambda_8_0, Initial residual = 0.0139047, Final residual = 1.069817e-17, No Iterations 1
DILUPBiCGStab:  Solving for ILambda_9_0, Initial residual = 0.009260695, Final residual = 8.277443e-18, No Iterations 1
DILUPBiCGStab:  Solving for ILambda_10_0, Initial residual = 0.005397686, Final residual = 7.382221e-18, No Iterations 1
DILUPBiCGStab:  Solving for ILambda_11_0, Initial residual = 0.002483701, Final residual = 6.451303e-18, No Iterations 1
DILUPBiCGStab:  Solving for ILambda_12_0, Initial residual = 0.002444652, Final residual = 0.0001671743, No Iterations 4
DILUPBiCGStab:  Solving for ILambda_13_0, Initial residual = 0.005440036, Final residual = 0.0002140943, No Iterations 8
DILUPBiCGStab:  Solving for ILambda_14_0, Initial residual = 0.009404468, Final residual = 0.0008653208, No Iterations 6
DILUPBiCGStab:  Solving for ILambda_15_0, Initial residual = 0.01205065, Final residual = 0.0002381241, No Iterations 7
Radiation solver iter: 11
DILUPBiCGStab:  Solving for ILambda_0_0, Initial residual = 0.008720137, Final residual = 7.340645e-18, No Iterations 1
DILUPBiCGStab:  Solving for ILambda_1_0, Initial residual = 0.004143563, Final residual = 2.054711e-18, No Iterations 1
DILUPBiCGStab:  Solving for ILambda_5_0, Initial residual = 0.0007270489, Final residual = 7.082362e-05, No Iterations 2
DILUPBiCGStab:  Solving for ILambda_6_0, Initial residual = 0.005464892, Final residual = 0.0003123863, No Iterations 2
DILUPBiCGStab:  Solving for ILambda_7_0, Initial residual = 0.009136964, Final residual = 0.0007384859, No Iterations 3
DILUPBiCGStab:  Solving for ILambda_8_0, Initial residual = 0.01195171, Final residual = 9.178851e-18, No Iterations 1
DILUPBiCGStab:  Solving for ILambda_9_0, Initial residual = 0.007824815, Final residual = 7.311758e-18, No Iterations 1
DILUPBiCGStab:  Solving for ILambda_10_0, Initial residual = 0.00439259, Final residual = 5.883556e-18, No Iterations 1
DILUPBiCGStab:  Solving for ILambda_11_0, Initial residual = 0.001921811, Final residual = 4.747003e-18, No Iterations 1
DILUPBiCGStab:  Solving for ILambda_12_0, Initial residual = 0.001878046, Final residual = 0.0001386374, No Iterations 4
DILUPBiCGStab:  Solving for ILambda_13_0, Initial residual = 0.004343748, Final residual = 0.0002560174, No Iterations 8
DILUPBiCGStab:  Solving for ILambda_14_0, Initial residual = 0.008075939, Final residual = 0.0007950071, No Iterations 4
DILUPBiCGStab:  Solving for ILambda_15_0, Initial residual = 0.0100761, Final residual = 0.0007191636, No Iterations 3
Radiation solver iter: 12
DILUPBiCGStab:  Solving for ILambda_0_0, Initial residual = 0.007414143, Final residual = 5.855015e-18, No Iterations 1
DILUPBiCGStab:  Solving for ILambda_1_0, Initial residual = 0.003166382, Final residual = 1.750106e-18, No Iterations 1
DILUPBiCGStab:  Solving for ILambda_6_0, Initial residual = 0.004135081, Final residual = 0.0003874608, No Iterations 2
DILUPBiCGStab:  Solving for ILambda_7_0, Initial residual = 0.007912998, Final residual = 0.0005432876, No Iterations 3
DILUPBiCGStab:  Solving for ILambda_8_0, Initial residual = 0.01025658, Final residual = 7.23604e-18, No Iterations 1
DILUPBiCGStab:  Solving for ILambda_9_0, Initial residual = 0.00664519, Final residual = 5.246326e-18, No Iterations 1
DILUPBiCGStab:  Solving for ILambda_10_0, Initial residual = 0.003512139, Final residual = 4.355167e-18, No Iterations 1
DILUPBiCGStab:  Solving for ILambda_11_0, Initial residual = 0.001464083, Final residual = 3.844928e-18, No Iterations 1
DILUPBiCGStab:  Solving for ILambda_12_0, Initial residual = 0.001416005, Final residual = 9.450309e-05, No Iterations 4
DILUPBiCGStab:  Solving for ILambda_13_0, Initial residual = 0.003465512, Final residual = 0.0003049086, No Iterations 6
DILUPBiCGStab:  Solving for ILambda_14_0, Initial residual = 0.00697713, Final residual = 0.0006350128, No Iterations 6
DILUPBiCGStab:  Solving for ILambda_15_0, Initial residual = 0.008719841, Final residual = 0.0005078485, No Iterations 4
Radiation solver iter: 13
DILUPBiCGStab:  Solving for ILambda_0_0, Initial residual = 0.006282752, Final residual = 5.790863e-18, No Iterations 1
DILUPBiCGStab:  Solving for ILambda_1_0, Initial residual = 0.002383827, Final residual = 1.060113e-18, No Iterations 1
DILUPBiCGStab:  Solving for ILambda_6_0, Initial residual = 0.003121779, Final residual = 0.0002687715, No Iterations 2
DILUPBiCGStab:  Solving for ILambda_7_0, Initial residual = 0.006776966, Final residual = 0.0005321102, No Iterations 3
DILUPBiCGStab:  Solving for ILambda_8_0, Initial residual = 0.008817823, Final residual = 5.618587e-18, No Iterations 1
DILUPBiCGStab:  Solving for ILambda_9_0, Initial residual = 0.005659945, Final residual = 5.169347e-18, No Iterations 1
DILUPBiCGStab:  Solving for ILambda_10_0, Initial residual = 0.002785537, Final residual = 3.521145e-18, No Iterations 1
DILUPBiCGStab:  Solving for ILambda_11_0, Initial residual = 0.00112451, Final residual = 2.96728e-18, No Iterations 1
DILUPBiCGStab:  Solving for ILambda_12_0, Initial residual = 0.001084082, Final residual = 8.427712e-05, No Iterations 4
DILUPBiCGStab:  Solving for ILambda_13_0, Initial residual = 0.002799152, Final residual = 0.0002412814, No Iterations 6
DILUPBiCGStab:  Solving for ILambda_14_0, Initial residual = 0.005932328, Final residual = 0.0003467667, No Iterations 6
DILUPBiCGStab:  Solving for ILambda_15_0, Initial residual = 0.007515788, Final residual = 0.0002421289, No Iterations 5
Radiation solver iter: 14
DILUPBiCGStab:  Solving for ILambda_0_0, Initial residual = 0.005305337, Final residual = 3.763738e-18, No Iterations 1
DILUPBiCGStab:  Solving for ILambda_1_0, Initial residual = 0.001768844, Final residual = 6.81039e-19, No Iterations 1
DILUPBiCGStab:  Solving for ILambda_6_0, Initial residual = 0.002316233, Final residual = 0.0001800951, No Iterations 2
DILUPBiCGStab:  Solving for ILambda_7_0, Initial residual = 0.005796271, Final residual = 0.0005795291, No Iterations 2
DILUPBiCGStab:  Solving for ILambda_8_0, Initial residual = 0.007592373, Final residual = 5.676875e-18, No Iterations 1
DILUPBiCGStab:  Solving for ILambda_9_0, Initial residual = 0.004808335, Final residual = 3.992522e-18, No Iterations 1
DILUPBiCGStab:  Solving for ILambda_10_0, Initial residual = 0.002193337, Final residual = 2.717441e-18, No Iterations 1
DILUPBiCGStab:  Solving for ILambda_11_0, Initial residual = 0.0008754828, Final residual = 2.327499e-18, No Iterations 1
DILUPBiCGStab:  Solving for ILambda_12_0, Initial residual = 0.0008497422, Final residual = 6.247507e-05, No Iterations 4
DILUPBiCGStab:  Solving for ILambda_13_0, Initial residual = 0.002224101, Final residual = 0.0001692494, No Iterations 6
DILUPBiCGStab:  Solving for ILambda_14_0, Initial residual = 0.004873564, Final residual = 0.0004741392, No Iterations 4
DILUPBiCGStab:  Solving for ILambda_15_0, Initial residual = 0.006479056, Final residual = 0.000465232, No Iterations 3
GAMG:  Solving for p_rgh, Initial residual = 0.9450864, Final residual = 0.00685909, No Iterations 3
limitVelocity limitU Limited 0 (0%) of cells, with max limit 8
time step continuity errors : sum local = 0.00186893, global = 4.124039e-18, cumulative = 2.615295e-15
rho min/max : 0.3967443 1.014425
DILUPBiCGStab:  Solving for omega, Initial residual = 0.0006505661, Final residual = 2.007958e-05, No Iterations 1
DILUPBiCGStab:  Solving for k, Initial residual = 0.00183785, Final residual = 8.579843e-05, No Iterations 1
ExecutionTime = 0.61 s  ClockTime = 1 s

Time = 1002

DILUPBiCGStab:  Solving for h, Initial residual = 0.2382976, Final residual = 7.344468e-05, No Iterations 1
limitTemperature limitT Lower limited 0 (0%) of cells, with min limit 280
limitTemperature limitT Upper limited 0 (0%) of cells, with max limit 1200
limitTemperature limitT Unlimited Tmin 449.3533
limitTemperature limitT Unlimited Tmax 454.2863
Radiation solver iter: 0
DILUPBiCGStab:  Solving for ILambda_0_0, Initial residual = 0.2404178, Final residual = 2.459257e-15, No Iterations 1
DILUPBiCGStab:  Solving for ILambda_1_0, Initial residual = 0.4101905, Final residual = 2.850971e-15, No Iterations 1
DILUPBiCGStab:  Solving for ILambda_2_0, Initial residual = 0.5119949, Final residual = 2.952727e-15, No Iterations 1
DILUPBiCGStab:  Solving for ILambda_3_0, Initial residual = 0.5897548, Final residual = 3.071007e-15, No Iterations 1
DILUPBiCGStab:  Solving for ILambda_4_0, Initial residual = 0.5885633, Final residual = 0.0282671, No Iterations 4
DILUPBiCGStab:  Solving for ILambda_5_0, Initial residual = 0.5148657, Final residual = 0.03842153, No Iterations 9
DILUPBiCGStab:  Solving for ILambda_6_0, Initial residual = 0.4211528, Final residual = 0.01767364, No Iterations 17
DILUPBiCGStab:  Solving for ILambda_7_0, Initial residual = 0.2698219, Final residual = 0.003736189, No Iterations 33
DILUPBiCGStab:  Solving for ILambda_8_0, Initial residual = 0.519097, Final residual = 3.747558e-15, No Iterations 1
DILUPBiCGStab:  Solving for ILambda_9_0, Initial residual = 0.5663032, Final residual = 3.329921e-15, No Iterations 1
DILUPBiCGStab:  Solving for ILambda_10_0, Initial residual = 0.6285789, Final residual = 3.268516e-15, No Iterations 1
DILUPBiCGStab:  Solving for ILambda_11_0, Initial residual = 0.6858512, Final residual = 3.429296e-15, No Iterations 1
DILUPBiCGStab:  Solving for ILambda_12_0, Initial residual = 0.6876377, Final residual = 0.02436802, No Iterations 5
DILUPBiCGStab:  Solving for ILambda_13_0, Initial residual = 0.6365495, Final residual = 0.005990144, No Iterations 12
DILUPBiCGStab:  Solving for ILambda_14_0, Initial residual = 0.576372, Final residual = 0.008979337, No Iterations 19
DILUPBiCGStab:  Solving for ILambda_15_0, Initial residual = 0.5118519, Final residual = 0.02680647, No Iterations 31
Radiation solver iter: 1
DILUPBiCGStab:  Solving for ILambda_0_0, Initial residual = 0.1106193, Final residual = 4.154337e-16, No Iterations 1
DILUPBiCGStab:  Solving for ILambda_1_0, Initial residual = 0.1228514, Final residual = 3.227943e-16, No Iterations 1
DILUPBiCGStab:  Solving for ILambda_2_0, Initial residual = 0.1423148, Final residual = 3.653675e-16, No Iterations 1
DILUPBiCGStab:  Solving for ILambda_3_0, Initial residual = 0.1536031, Final residual = 4.590172e-16, No Iterations 1
DILUPBiCGStab:  Solving for ILambda_4_0, Initial residual = 0.2283969, Final residual = 0.01931599, No Iterations 3
DILUPBiCGStab:  Solving for ILambda_5_0, Initial residual = 0.2055061, Final residual = 0.01607152, No Iterations 8
DILUPBiCGStab:  Solving for ILambda_6_0, Initial residual = 0.118988, Final residual = 0.01109516, No Iterations 12
DILUPBiCGStab:  Solving for ILambda_7_0, Initial residual = 0.0710425, Final residual = 0.004864894, No Iterations 20
DILUPBiCGStab:  Solving for ILambda_8_0, Initial residual = 0.1267517, Final residual = 3.480894e-16, No Iterations 1
DILUPBiCGStab:  Solving for ILambda_9_0, Initial residual = 0.09571835, Final residual = 2.72907e-16, No Iterations 1
DILUPBiCGStab:  Solving for ILambda_10_0, Initial residual = 0.09618101, Final residual = 2.869188e-16, No Iterations 1
DILUPBiCGStab:  Solving for ILambda_11_0, Initial residual = 0.09193983, Final residual = 3.482651e-16, No Iterations 1
DILUPBiCGStab:  Solving for ILambda_12_0, Initial residual = 0.1813574, Final residual = 0.01121695, No Iterations 3
DILUPBiCGStab:  Solving for ILambda_13_0, Initial residual = 0.1153664, Final residual = 0.008294721, No Iterations 8
DILUPBiCGStab:  Solving for ILambda_14_0, Initial residual = 0.1287708, Final residual = 0.01226002, No Iterations 11
DILUPBiCGStab:  Solving for ILambda_15_0, Initial residual = 0.1858149, Final residual = 0.00934072, No Iterations 20
Radiation solver iter: 2
DILUPBiCGStab:  Solving for ILambda_0_0, Initial residual = 0.07264233, Final residual = 1.684736e-16, No Iterations 1
DILUPBiCGStab:  Solving for ILambda_1_0, Initial residual = 0.07057855, Final residual = 8.641256e-17, No Iterations 1
DILUPBiCGStab:  Solving for ILambda_2_0, Initial residual = 0.07358286, Final residual = 7.107813e-17, No Iterations 1
DILUPBiCGStab:  Solving for ILambda_3_0, Initial residual = 0.05427554, Final residual = 5.808749e-17, No Iterations 1
DILUPBiCGStab:  Solving for ILambda_4_0, Initial residual = 0.07262107, Final residual = 0.004808787, No Iterations 3
DILUPBiCGStab:  Solving for ILambda_5_0, Initial residual = 0.09553504, Final residual = 0.008027292, No Iterations 6
DILUPBiCGStab:  Solving for ILambda_6_0, Initial residual = 0.07414435, Final residual = 0.006551481, No Iterations 6
DILUPBiCGStab:  Solving for ILambda_7_0, Initial residual = 0.05387313, Final residual = 0.002988008, No Iterations 10
DILUPBiCGStab:  Solving for ILambda_8_0, Initial residual = 0.07175121, Final residual = 1.093454e-16, No Iterations 1
DILUPBiCGStab:  Solving for ILambda_9_0, Initial residual = 0.05910586, Final residual = 9.537393e-17, No Iterations 1
DILUPBiCGStab:  Solving for ILambda_10_0, Initial residual = 0.05826595, Final residual = 1.137191e-16, No Iterations 1
DILUPBiCGStab:  Solving for ILambda_11_0, Initial residual = 0.05005073, Final residual = 1.514858e-16, No Iterations 1
DILUPBiCGStab:  Solving for ILambda_12_0, Initial residual = 0.06258533, Final residual = 0.005027158, No Iterations 4
DILUPBiCGStab:  Solving for ILambda_13_0, Initial residual = 0.0749214, Final residual = 0.0008516207, No Iterations 10
DILUPBiCGStab:  Solving for ILambda_14_0, Initial residual = 0.0823477, Final residual = 0.002914158, No Iterations 12
DILUPBiCGStab:  Solving for ILambda_15_0, Initial residual = 0.1095483, Final residual = 0.009214782, No Iterations 12
Radiation solver iter: 3
DILUPBiCGStab:  Solving for ILambda_0_0, Initial residual = 0.05742929, Final residual = 1.047259e-16, No Iterations 1
DILUPBiCGStab:  Solving for ILambda_1_0, Initial residual = 0.0522605, Final residual = 5.193419e-17, No Iterations 1
DILUPBiCGStab:  Solving for ILambda_2_0, Initial residual = 0.04863334, Final residual = 4.550415e-17, No Iterations 1
DILUPBiCGStab:  Solving for ILambda_3_0, Initial residual = 0.021582, Final residual = 1.92663e-17, No Iterations 1
DILUPBiCGStab:  Solving for ILambda_4_0, Initial residual = 0.02831614, Final residual = 0.001409248, No Iterations 2
DILUPBiCGStab:  Solving for ILambda_5_0, Initial residual = 0.06362272, Final residual = 0.004724678, No Iterations 4
DILUPBiCGStab:  Solving for ILambda_6_0, Initial residual = 0.06103576, Final residual = 0.005343039, No Iterations 5
DILUPBiCGStab:  Solving for ILambda_7_0, Initial residual = 0.04444315, Final residual = 0.004296937, No Iterations 5
DILUPBiCGStab:  Solving for ILambda_8_0, Initial residual = 0.06044747, Final residual = 7.428792e-17, No Iterations 1
DILUPBiCGStab:  Solving for ILambda_9_0, Initial residual = 0.05246673, Final residual = 7.208981e-17, No Iterations 1
DILUPBiCGStab:  Solving for ILambda_10_0, Initial residual = 0.04970311, Final residual = 9.299886e-17, No Iterations 1
DILUPBiCGStab:  Solving for ILambda_11_0, Initial residual = 0.03751892, Final residual = 1.058565e-16, No Iterations 1
DILUPBiCGStab:  Solving for ILambda_12_0, Initial residual = 0.03726224, Final residual = 0.003023538, No Iterations 4
DILUPBiCGStab:  Solving for ILambda_13_0, Initial residual = 0.05569074, Final residual = 0.002970869, No Iterations 8
DILUPBiCGStab:  Solving for ILambda_14_0, Initial residual = 0.06552736, Final residual = 0.00332874, No Iterations 10
DILUPBiCGStab:  Solving for ILambda_15_0, Initial residual = 0.09101085, Final residual = 0.008361464, No Iterations 8
Radiation solver iter: 4
DILUPBiCGStab:  Solving for ILambda_0_0, Initial residual = 0.04852745, Final residual = 7.367277e-17, No Iterations 1
DILUPBiCGStab:  Solving for ILambda_1_0, Initial residual = 0.04212805, Final residual = 3.579896e-17, No Iterations 1
DILUPBiCGStab:  Solving for ILambda_2_0, Initial residual = 0.03369412, Final residual = 2.567139e-17, No Iterations 1
DILUPBiCGStab:  Solving for ILambda_3_0, Initial residual = 0.009212253, Final residual = 7.102184e-18, No Iterations 1
DILUPBiCGStab:  Solving for ILambda_4_0, Initial residual = 0.01194398, Final residual = 0.000950944, No Iterations 2
DILUPBiCGStab:  Solving for ILambda_5_0, Initial residual = 0.04532007, Final residual = 0.003745516, No Iterations 3
DILUPBiCGStab:  Solving for ILambda_6_0, Initial residual = 0.05203874, Final residual = 0.004246088, No Iterations 4
DILUPBiCGStab:  Solving for ILambda_7_0, Initial residual = 0.03983182, Final residual = 0.002049442, No Iterations 6
DILUPBiCGStab:  Solving for ILambda_8_0, Initial residual = 0.0529634, Final residual = 5.991883e-17, No Iterations 1
DILUPBiCGStab:  Solving for ILambda_9_0, Initial residual = 0.04681576, Final residual = 6.453609e-17, No Iterations 1
DILUPBiCGStab:  Solving for ILambda_10_0, Initial residual = 0.04052028, Final residual = 6.742161e-17, No Iterations 1
DILUPBiCGStab:  Solving for ILambda_11_0, Initial residual = 0.02608831, Final residual = 6.975842e-17, No Iterations 1
DILUPBiCGStab:  Solving for ILambda_12_0, Initial residual = 0.02643091, Final residual = 0.002108086, No Iterations 4
DILUPBiCGStab:  Solving for ILambda_13_0, Initial residual = 0.0434763, Final residual = 0.001477577, No Iterations 8
DILUPBiCGStab:  Solving for ILambda_14_0, Initial residual = 0.05670402, Final residual = 0.00240529, No Iterations 10
DILUPBiCGStab:  Solving for ILambda_15_0, Initial residual = 0.07867742, Final residual = 0.007387663, No Iterations 6
Radiation solver iter: 5
DILUPBiCGStab:  Solving for ILambda_0_0, Initial residual = 0.0420993, Final residual = 5.570843e-17, No Iterations 1
DILUPBiCGStab:  Solving for ILambda_1_0, Initial residual = 0.03534039, Final residual = 2.608349e-17, No Iterations 1
DILUPBiCGStab:  Solving for ILambda_2_0, Initial residual = 0.02374528, Final residual = 1.879805e-17, No Iterations 1
DILUPBiCGStab:  Solving for ILambda_3_0, Initial residual = 0.003576508, Final residual = 2.962924e-18, No Iterations 1
DILUPBiCGStab:  Solving for ILambda_4_0, Initial residual = 0.004889053, Final residual = 0.0003941888, No Iterations 2
DILUPBiCGStab:  Solving for ILambda_5_0, Initial residual = 0.03282349, Final residual = 0.001492952, No Iterations 4
DILUPBiCGStab:  Solving for ILambda_6_0, Initial residual = 0.0452329, Final residual = 0.003991553, No Iterations 3
DILUPBiCGStab:  Solving for ILambda_7_0, Initial residual = 0.03588638, Final residual = 0.003480992, No Iterations 4
DILUPBiCGStab:  Solving for ILambda_8_0, Initial residual = 0.0477207, Final residual = 4.955181e-17, No Iterations 1
DILUPBiCGStab:  Solving for ILambda_9_0, Initial residual = 0.04196945, Final residual = 4.953118e-17, No Iterations 1
DILUPBiCGStab:  Solving for ILambda_10_0, Initial residual = 0.03227852, Final residual = 4.96993e-17, No Iterations 1
DILUPBiCGStab:  Solving for ILambda_11_0, Initial residual = 0.0183212, Final residual = 4.726114e-17, No Iterations 1
DILUPBiCGStab:  Solving for ILambda_12_0, Initial residual = 0.01766429, Final residual = 0.001266202, No Iterations 3
DILUPBiCGStab:  Solving for ILambda_13_0, Initial residual = 0.03213124, Final residual = 0.002341609, No Iterations 7
DILUPBiCGStab:  Solving for ILambda_14_0, Initial residual = 0.04752026, Final residual = 0.00369956, No Iterations 7
DILUPBiCGStab:  Solving for ILambda_15_0, Initial residual = 0.06987594, Final residual = 0.005964557, No Iterations 7
Radiation solver iter: 6
DILUPBiCGStab:  Solving for ILambda_0_0, Initial residual = 0.03719274, Final residual = 4.447949e-17, No Iterations 1
DILUPBiCGStab:  Solving for ILambda_1_0, Initial residual = 0.02980609, Final residual = 2.030899e-17, No Iterations 1
DILUPBiCGStab:  Solving for ILambda_2_0, Initial residual = 0.01637249, Final residual = 1.326963e-17, No Iterations 1
DILUPBiCGStab:  Solving for ILambda_3_0, Initial residual = 0.001405113, Final residual = 1.26342e-18, No Iterations 1
DILUPBiCGStab:  Solving for ILambda_4_0, Initial residual = 0.001970141, Final residual = 0.0001192116, No Iterations 2
DILUPBiCGStab:  Solving for ILambda_5_0, Initial residual = 0.02248168, Final residual = 0.001128605, No Iterations 4
DILUPBiCGStab:  Solving for ILambda_6_0, Initial residual = 0.03941005, Final residual = 0.001691948, No Iterations 4
DILUPBiCGStab:  Solving for ILambda_7_0, Initial residual = 0.03322573, Final residual = 0.003242809, No Iterations 7
DILUPBiCGStab:  Solving for ILambda_8_0, Initial residual = 0.04288797, Final residual = 4.188344e-17, No Iterations 1
DILUPBiCGStab:  Solving for ILambda_9_0, Initial residual = 0.03715606, Final residual = 4.00463e-17, No Iterations 1
DILUPBiCGStab:  Solving for ILambda_10_0, Initial residual = 0.02594972, Final residual = 3.546075e-17, No Iterations 1
DILUPBiCGStab:  Solving for ILambda_11_0, Initial residual = 0.01384397, Final residual = 3.513178e-17, No Iterations 1
DILUPBiCGStab:  Solving for ILambda_12_0, Initial residual = 0.01380031, Final residual = 0.001114945, No Iterations 4
DILUPBiCGStab:  Solving for ILambda_13_0, Initial residual = 0.02512707, Final residual = 0.002231968, No Iterations 6
DILUPBiCGStab:  Solving for ILambda_14_0, Initial residual = 0.03990809, Final residual = 0.003158536, No Iterations 7
DILUPBiCGStab:  Solving for ILambda_15_0, Initial residual = 0.06154092, Final residual = 0.006026093, No Iterations 5
Radiation solver iter: 7
DILUPBiCGStab:  Solving for ILambda_0_0, Initial residual = 0.03299455, Final residual = 4.003406e-17, No Iterations 1
DILUPBiCGStab:  Solving for ILambda_1_0, Initial residual = 0.02496033, Final residual = 1.582813e-17, No Iterations 1
DILUPBiCGStab:  Solving for ILambda_2_0, Initial residual = 0.01092331, Final residual = 6.644306e-18, No Iterations 1
DILUPBiCGStab:  Solving for ILambda_3_0, Initial residual = 0.0005738246, Final residual = 7.279937e-19, No Iterations 1
DILUPBiCGStab:  Solving for ILambda_4_0, Initial residual = 0.0008188397, Final residual = 7.641675e-05, No Iterations 2
DILUPBiCGStab:  Solving for ILambda_5_0, Initial residual = 0.01500865, Final residual = 0.0009419647, No Iterations 3
DILUPBiCGStab:  Solving for ILambda_6_0, Initial residual = 0.03337723, Final residual = 0.002980635, No Iterations 2
DILUPBiCGStab:  Solving for ILambda_7_0, Initial residual = 0.02991938, Final residual = 0.002412183, No Iterations 4
DILUPBiCGStab:  Solving for ILambda_8_0, Initial residual = 0.03813339, Final residual = 3.35139e-17, No Iterations 1
DILUPBiCGStab:  Solving for ILambda_9_0, Initial residual = 0.03250308, Final residual = 3.586215e-17, No Iterations 1
DILUPBiCGStab:  Solving for ILambda_10_0, Initial residual = 0.02130896, Final residual = 2.76517e-17, No Iterations 1
DILUPBiCGStab:  Solving for ILambda_11_0, Initial residual = 0.01090343, Final residual = 2.713764e-17, No Iterations 1
DILUPBiCGStab:  Solving for ILambda_12_0, Initial residual = 0.01054801, Final residual = 0.0006837212, No Iterations 4
DILUPBiCGStab:  Solving for ILambda_13_0, Initial residual = 0.02074311, Final residual = 0.001969976, No Iterations 8
DILUPBiCGStab:  Solving for ILambda_14_0, Initial residual = 0.03280004, Final residual = 0.003128474, No Iterations 6
DILUPBiCGStab:  Solving for ILambda_15_0, Initial residual = 0.05338666, Final residual = 0.00532759, No Iterations 5
Radiation solver iter: 8
DILUPBiCGStab:  Solving for ILambda_0_0, Initial residual = 0.02932657, Final residual = 2.992675e-17, No Iterations 1
DILUPBiCGStab:  Solving for ILambda_1_0, Initial residual = 0.02069236, Final residual = 1.204217e-17, No Iterations 1
DILUPBiCGStab:  Solving for ILambda_2_0, Initial residual = 0.007013401, Final residual = 4.060347e-18, No Iterations 1
DILUPBiCGStab:  Solving for ILambda_5_0, Initial residual = 0.00974389, Final residual = 0.0008814965, No Iterations 3
DILUPBiCGStab:  Solving for ILambda_6_0, Initial residual = 0.02820131, Final residual = 0.002214402, No Iterations 2
DILUPBiCGStab:  Solving for ILambda_7_0, Initial residual = 0.02684392, Final residual = 0.001527508, No Iterations 4
DILUPBiCGStab:  Solving for ILambda_8_0, Initial residual = 0.03383076, Final residual = 3.092869e-17, No Iterations 1
DILUPBiCGStab:  Solving for ILambda_9_0, Initial residual = 0.02849076, Final residual = 2.720763e-17, No Iterations 1
DILUPBiCGStab:  Solving for ILambda_10_0, Initial residual = 0.01819166, Final residual = 2.324531e-17, No Iterations 1
DILUPBiCGStab:  Solving for ILambda_11_0, Initial residual = 0.009059878, Final residual = 2.261509e-17, No Iterations 1
DILUPBiCGStab:  Solving for ILambda_12_0, Initial residual = 0.008619145, Final residual = 6.931611e-05, No Iterations 5
DILUPBiCGStab:  Solving for ILambda_13_0, Initial residual = 0.01750532, Final residual = 0.001630616, No Iterations 6
DILUPBiCGStab:  Solving for ILambda_14_0, Initial residual = 0.02721754, Final residual = 0.00161341, No Iterations 6
DILUPBiCGStab:  Solving for ILambda_15_0, Initial residual = 0.04595699, Final residual = 0.001506923, No Iterations 7
Radiation solver iter: 9
DILUPBiCGStab:  Solving for ILambda_0_0, Initial residual = 0.0259465, Final residual = 2.642449e-17, No Iterations 1
DILUPBiCGStab:  Solving for ILambda_1_0, Initial residual = 0.01684476, Final residual = 9.213465e-18, No Iterations 1
DILUPBiCGStab:  Solving for ILambda_2_0, Initial residual = 0.004380532, Final residual = 2.421105e-18, No Iterations 1
DILUPBiCGStab:  Solving for ILambda_5_0, Initial residual = 0.006126081, Final residual = 0.000570653, No Iterations 2
DILUPBiCGStab:  Solving for ILambda_6_0, Initial residual = 0.02323397, Final residual = 0.001653693, No Iterations 2
DILUPBiCGStab:  Solving for ILambda_7_0, Initial residual = 0.02406689, Final residual = 0.001935892, No Iterations 3
DILUPBiCGStab:  Solving for ILambda_8_0, Initial residual = 0.02992155, Final residual = 2.281278e-17, No Iterations 1
DILUPBiCGStab:  Solving for ILambda_9_0, Initial residual = 0.02515582, Final residual = 2.343512e-17, No Iterations 1
DILUPBiCGStab:  Solving for ILambda_10_0, Initial residual = 0.01555255, Final residual = 1.941688e-17, No Iterations 1
DILUPBiCGStab:  Solving for ILambda_11_0, Initial residual = 0.007475901, Final residual = 1.897394e-17, No Iterations 1
DILUPBiCGStab:  Solving for ILambda_12_0, Initial residual = 0.00731018, Final residual = 0.0003974524, No Iterations 4
DILUPBiCGStab:  Solving for ILambda_13_0, Initial residual = 0.01546878, Final residual = 0.001486466, No Iterations 6
DILUPBiCGStab:  Solving for ILambda_14_0, Initial residual = 0.0228281, Final residual = 0.002194284, No Iterations 5
DILUPBiCGStab:  Solving for ILambda_15_0, Initial residual = 0.03871724, Final residual = 0.002958053, No Iterations 4
Radiation solver iter: 10
DILUPBiCGStab:  Solving for ILambda_0_0, Initial residual = 0.02281936, Final residual = 1.984421e-17, No Iterations 1
DILUPBiCGStab:  Solving for ILambda_1_0, Initial residual = 0.01348198, Final residual = 6.682928e-18, No Iterations 1
DILUPBiCGStab:  Solving for ILambda_2_0, Initial residual = 0.00263619, Final residual = 1.356608e-18, No Iterations 1
DILUPBiCGStab:  Solving for ILambda_5_0, Initial residual = 0.003708136, Final residual = 0.0002881454, No Iterations 2
DILUPBiCGStab:  Solving for ILambda_6_0, Initial residual = 0.01872335, Final residual = 0.001206054, No Iterations 2
DILUPBiCGStab:  Solving for ILambda_7_0, Initial residual = 0.02173656, Final residual = 0.0008853107, No Iterations 4
DILUPBiCGStab:  Solving for ILambda_8_0, Initial residual = 0.02633644, Final residual = 1.733524e-17, No Iterations 1
DILUPBiCGStab:  Solving for ILambda_9_0, Initial residual = 0.02212438, Final residual = 1.779428e-17, No Iterations 1
DILUPBiCGStab:  Solving for ILambda_10_0, Initial residual = 0.01312692, Final residual = 1.615369e-17, No Iterations 1
DILUPBiCGStab:  Solving for ILambda_11_0, Initial residual = 0.006054938, Final residual = 1.570388e-17, No Iterations 1
DILUPBiCGStab:  Solving for ILambda_12_0, Initial residual = 0.006108405, Final residual = 0.0002594739, No Iterations 4
DILUPBiCGStab:  Solving for ILambda_13_0, Initial residual = 0.01307031, Final residual = 0.000662036, No Iterations 7
DILUPBiCGStab:  Solving for ILambda_14_0, Initial residual = 0.01990236, Final residual = 0.001770044, No Iterations 6
DILUPBiCGStab:  Solving for ILambda_15_0, Initial residual = 0.03391426, Final residual = 0.003078566, No Iterations 3
Radiation solver iter: 11
DILUPBiCGStab:  Solving for ILambda_0_0, Initial residual = 0.01995464, Final residual = 1.711248e-17, No Iterations 1
DILUPBiCGStab:  Solving for ILambda_1_0, Initial residual = 0.01059728, Final residual = 5.604746e-18, No Iterations 1
DILUPBiCGStab:  Solving for ILambda_2_0, Initial residual = 0.001539148, Final residual = 8.019576e-19, No Iterations 1
DILUPBiCGStab:  Solving for ILambda_5_0, Initial residual = 0.002173286, Final residual = 0.0001674799, No Iterations 2
DILUPBiCGStab:  Solving for ILambda_6_0, Initial residual = 0.01472764, Final residual = 0.0008493011, No Iterations 2
DILUPBiCGStab:  Solving for ILambda_7_0, Initial residual = 0.01894447, Final residual = 0.001606025, No Iterations 2
DILUPBiCGStab:  Solving for ILambda_8_0, Initial residual = 0.02313234, Final residual = 1.65943e-17, No Iterations 1
DILUPBiCGStab:  Solving for ILambda_9_0, Initial residual = 0.01940346, Final residual = 1.588546e-17, No Iterations 1
DILUPBiCGStab:  Solving for ILambda_10_0, Initial residual = 0.01088723, Final residual = 1.292944e-17, No Iterations 1
DILUPBiCGStab:  Solving for ILambda_11_0, Initial residual = 0.004813953, Final residual = 1.194601e-17, No Iterations 1
DILUPBiCGStab:  Solving for ILambda_12_0, Initial residual = 0.0048202, Final residual = 0.0002133799, No Iterations 4
DILUPBiCGStab:  Solving for ILambda_13_0, Initial residual = 0.0106137, Final residual = 0.0003683339, No Iterations 8
DILUPBiCGStab:  Solving for ILambda_14_0, Initial residual = 0.01747383, Final residual = 0.001455295, No Iterations 6
DILUPBiCGStab:  Solving for ILambda_15_0, Initial residual = 0.02969595, Final residual = 0.00187916, No Iterations 4
Radiation solver iter: 12
DILUPBiCGStab:  Solving for ILambda_0_0, Initial residual = 0.01734081, Final residual = 1.522484e-17, No Iterations 1
DILUPBiCGStab:  Solving for ILambda_1_0, Initial residual = 0.008170541, Final residual = 3.809641e-18, No Iterations 1
DILUPBiCGStab:  Solving for ILambda_2_0, Initial residual = 0.0008816051, Final residual = 3.682115e-19, No Iterations 1
DILUPBiCGStab:  Solving for ILambda_5_0, Initial residual = 0.001249727, Final residual = 9.654607e-05, No Iterations 2
DILUPBiCGStab:  Solving for ILambda_6_0, Initial residual = 0.01131301, Final residual = 0.001085057, No Iterations 2
DILUPBiCGStab:  Solving for ILambda_7_0, Initial residual = 0.0167544, Final residual = 0.001575276, No Iterations 2
DILUPBiCGStab:  Solving for ILambda_8_0, Initial residual = 0.02025229, Final residual = 1.414691e-17, No Iterations 1
DILUPBiCGStab:  Solving for ILambda_9_0, Initial residual = 0.01692779, Final residual = 1.486288e-17, No Iterations 1
DILUPBiCGStab:  Solving for ILambda_10_0, Initial residual = 0.008902279, Final residual = 1.093688e-17, No Iterations 1
DILUPBiCGStab:  Solving for ILambda_11_0, Initial residual = 0.003757828, Final residual = 9.259227e-18, No Iterations 1
DILUPBiCGStab:  Solving for ILambda_12_0, Initial residual = 0.003732961, Final residual = 0.0001394126, No Iterations 4
DILUPBiCGStab:  Solving for ILambda_13_0, Initial residual = 0.008541995, Final residual = 0.0007669328, No Iterations 6
DILUPBiCGStab:  Solving for ILambda_14_0, Initial residual = 0.01519153, Final residual = 0.001484606, No Iterations 4
DILUPBiCGStab:  Solving for ILambda_15_0, Initial residual = 0.02585039, Final residual = 0.001404841, No Iterations 4
Radiation solver iter: 13
DILUPBiCGStab:  Solving for ILambda_0_0, Initial residual = 0.01495412, Final residual = 1.127404e-17, No Iterations 1
DILUPBiCGStab:  Solving for ILambda_1_0, Initial residual = 0.006181895, Final residual = 2.8178e-18, No Iterations 1
DILUPBiCGStab:  Solving for ILambda_5_0, Initial residual = 0.000714515, Final residual = 6.343775e-05, No Iterations 2
DILUPBiCGStab:  Solving for ILambda_6_0, Initial residual = 0.008648106, Final residual = 0.0007808323, No Iterations 2
DILUPBiCGStab:  Solving for ILambda_7_0, Initial residual = 0.0146978, Final residual = 0.001379079, No Iterations 2
DILUPBiCGStab:  Solving for ILambda_8_0, Initial residual = 0.01770951, Final residual = 1.167118e-17, No Iterations 1
DILUPBiCGStab:  Solving for ILambda_9_0, Initial residual = 0.01466273, Final residual = 1.146731e-17, No Iterations 1
DILUPBiCGStab:  Solving for ILambda_10_0, Initial residual = 0.007193567, Final residual = 9.012874e-18, No Iterations 1
DILUPBiCGStab:  Solving for ILambda_11_0, Initial residual = 0.002927651, Final residual = 7.319981e-18, No Iterations 1
DILUPBiCGStab:  Solving for ILambda_12_0, Initial residual = 0.002893743, Final residual = 0.0001227216, No Iterations 4
DILUPBiCGStab:  Solving for ILambda_13_0, Initial residual = 0.006979924, Final residual = 0.0006870785, No Iterations 6
DILUPBiCGStab:  Solving for ILambda_14_0, Initial residual = 0.01339024, Final residual = 0.0009820329, No Iterations 5
DILUPBiCGStab:  Solving for ILambda_15_0, Initial residual = 0.02255732, Final residual = 0.0008684278, No Iterations 4
Radiation solver iter: 14
DILUPBiCGStab:  Solving for ILambda_0_0, Initial residual = 0.01280357, Final residual = 9.229941e-18, No Iterations 1
DILUPBiCGStab:  Solving for ILambda_1_0, Initial residual = 0.004597341, Final residual = 2.02128e-18, No Iterations 1
DILUPBiCGStab:  Solving for ILambda_6_0, Initial residual = 0.006472519, Final residual = 0.0005203879, No Iterations 2
DILUPBiCGStab:  Solving for ILambda_7_0, Initial residual = 0.01279251, Final residual = 0.001181238, No Iterations 2
DILUPBiCGStab:  Solving for ILambda_8_0, Initial residual = 0.01546042, Final residual = 1.003498e-17, No Iterations 1
DILUPBiCGStab:  Solving for ILambda_9_0, Initial residual = 0.01256605, Final residual = 9.205242e-18, No Iterations 1
DILUPBiCGStab:  Solving for ILambda_10_0, Initial residual = 0.005761529, Final residual = 7.392026e-18, No Iterations 1
DILUPBiCGStab:  Solving for ILambda_11_0, Initial residual = 0.002282535, Final residual = 5.908967e-18, No Iterations 1
DILUPBiCGStab:  Solving for ILambda_12_0, Initial residual = 0.002251696, Final residual = 8.60312e-05, No Iterations 4
DILUPBiCGStab:  Solving for ILambda_13_0, Initial residual = 0.00568849, Final residual = 0.0004397205, No Iterations 6
DILUPBiCGStab:  Solving for ILambda_14_0, Initial residual = 0.01163907, Final residual = 0.0007012905, No Iterations 6
DILUPBiCGStab:  Solving for ILambda_15_0, Initial residual = 0.01968565, Final residual = 0.001889789, No Iterations 2
GAMG:  Solving for p_rgh, Initial residual = 0.6629189, Final residual = 0.006460663, No Iterations 2
limitVelocity limitU Limited 0 (0%) of cells, with max limit 8
time step continuity errors : sum local = 0.00234772, global = -4.88144e-17, cumulative = 2.566481e-15
rho min/max : 0.5089704 1.002634
DILUPBiCGStab:  Solving for omega, Initial residual = 0.000556447, Final residual = 1.821245e-05, No Iterations 1
DILUPBiCGStab:  Solving for k, Initial residual = 0.001903966, Final residual = 8.646862e-05, No Iterations 1
ExecutionTime = 1.1 s  ClockTime = 1 s

Time = 1003

DILUPBiCGStab:  Solving for h, Initial residual = 0.1106922, Final residual = 2.445863e-05, No Iterations 1
limitTemperature limitT Lower limited 0 (0%) of cells, with min limit 280
limitTemperature limitT Upper limited 0 (0%) of cells, with max limit 1200
limitTemperature limitT Unlimited Tmin 448.7753
limitTemperature limitT Unlimited Tmax 457.3369
GAMG:  Solving for p_rgh, Initial residual = 0.5393793, Final residual = 0.002368762, No Iterations 2
limitVelocity limitU Limited 0 (0%) of cells, with max limit 8
time step continuity errors : sum local = 0.0009880993, global = -3.245825e-17, cumulative = 2.534022e-15
rho min/max : 0.5716336 0.9963927
DILUPBiCGStab:  Solving for omega, Initial residual = 0.0007297687, Final residual = 2.080653e-05, No Iterations 1
DILUPBiCGStab:  Solving for k, Initial residual = 0.001932612, Final residual = 8.456202e-05, No Iterations 1
ExecutionTime = 1.11 s  ClockTime = 1 s

Time = 1004

DILUPBiCGStab:  Solving for h, Initial residual = 0.07763936, Final residual = 2.069447e-05, No Iterations 1
limitTemperature limitT Lower limited 0 (0%) of cells, with min limit 280
limitTemperature limitT Upper limited 0 (0%) of cells, with max limit 1200
limitTemperature limitT Unlimited Tmin 448.2113
limitTemperature limitT Unlimited Tmax 460.2302
GAMG:  Solving for p_rgh, Initial residual = 0.5053761, Final residual = 0.004715469, No Iterations 2
limitVelocity limitU Limited 0 (0%) of cells, with max limit 8
time step continuity errors : sum local = 0.002169362, global = -9.486129e-18, cumulative = 2.524536e-15
rho min/max : 0.6300494 0.9905951
DILUPBiCGStab:  Solving for omega, Initial residual = 0.0008881366, Final residual = 2.542675e-05, No Iterations 1
DILUPBiCGStab:  Solving for k, Initial residual = 0.001943285, Final residual = 8.295511e-05, No Iterations 1
ExecutionTime = 1.13 s  ClockTime = 1 s

Time = 1005

DILUPBiCGStab:  Solving for h, Initial residual = 0.05857716, Final residual = 1.982464e-05, No Iterations 1
limitTemperature limitT Lower limited 0 (0%) of cells, with min limit 280
limitTemperature limitT Upper limited 0 (0%) of cells, with max limit 1200
limitTemperature limitT Unlimited Tmin 447.6798
limitTemperature limitT Unlimited Tmax 460.4
Radiation solver iter: 0
DILUPBiCGStab:  Solving for ILambda_0_0, Initial residual = 0.4266346, Final residual = 4.242775e-15, No Iterations 1
DILUPBiCGStab:  Solving for ILambda_1_0, Initial residual = 0.6130454, Final residual = 4.523293e-15, No Iterations 1
DILUPBiCGStab:  Solving for ILambda_2_0, Initial residual = 0.7163696, Final residual = 4.361365e-15, No Iterations 1
DILUPBiCGStab:  Solving for ILambda_3_0, Initial residual = 0.7923177, Final residual = 4.845071e-15, No Iterations 1
DILUPBiCGStab:  Solving for ILambda_4_0, Initial residual = 0.7970547, Final residual = 0.0473504, No Iterations 4
DILUPBiCGStab:  Solving for ILambda_5_0, Initial residual = 0.7147405, Final residual = 0.02706873, No Iterations 11
DILUPBiCGStab:  Solving for ILambda_6_0, Initial residual = 0.6025344, Final residual = 0.01180465, No Iterations 18
DILUPBiCGStab:  Solving for ILambda_7_0, Initial residual = 0.4055892, Final residual = 0.01955604, No Iterations 30
DILUPBiCGStab:  Solving for ILambda_8_0, Initial residual = 0.63929, Final residual = 5.559958e-15, No Iterations 1
DILUPBiCGStab:  Solving for ILambda_9_0, Initial residual = 0.7270268, Final residual = 4.867115e-15, No Iterations 1
DILUPBiCGStab:  Solving for ILambda_10_0, Initial residual = 0.7879464, Final residual = 4.339338e-15, No Iterations 1
DILUPBiCGStab:  Solving for ILambda_11_0, Initial residual = 0.8293926, Final residual = 4.019865e-15, No Iterations 1
DILUPBiCGStab:  Solving for ILambda_12_0, Initial residual = 0.8287712, Final residual = 0.06074433, No Iterations 4
DILUPBiCGStab:  Solving for ILambda_13_0, Initial residual = 0.7867648, Final residual = 0.005104479, No Iterations 12
DILUPBiCGStab:  Solving for ILambda_14_0, Initial residual = 0.7273347, Final residual = 0.07165668, No Iterations 17
DILUPBiCGStab:  Solving for ILambda_15_0, Initial residual = 0.6316639, Final residual = 0.06189726, No Iterations 27
Radiation solver iter: 1
DILUPBiCGStab:  Solving for ILambda_0_0, Initial residual = 0.2187988, Final residual = 1.033969e-15, No Iterations 1
DILUPBiCGStab:  Solving for ILambda_1_0, Initial residual = 0.2616343, Final residual = 1.080243e-15, No Iterations 1
DILUPBiCGStab:  Solving for ILambda_2_0, Initial residual = 0.3138188, Final residual = 1.258569e-15, No Iterations 1
DILUPBiCGStab:  Solving for ILambda_3_0, Initial residual = 0.3564365, Final residual = 1.756364e-15, No Iterations 1
DILUPBiCGStab:  Solving for ILambda_4_0, Initial residual = 0.5875784, Final residual = 0.05151773, No Iterations 4
DILUPBiCGStab:  Solving for ILambda_5_0, Initial residual = 0.4459217, Final residual = 0.02922457, No Iterations 8
DILUPBiCGStab:  Solving for ILambda_6_0, Initial residual = 0.279877, Final residual = 0.02001905, No Iterations 11
DILUPBiCGStab:  Solving for ILambda_7_0, Initial residual = 0.2199714, Final residual = 0.02199454, No Iterations 18
DILUPBiCGStab:  Solving for ILambda_8_0, Initial residual = 0.06211395, Final residual = 3.310378e-16, No Iterations 1
DILUPBiCGStab:  Solving for ILambda_9_0, Initial residual = 0.08160041, Final residual = 3.711294e-16, No Iterations 1
DILUPBiCGStab:  Solving for ILambda_10_0, Initial residual = 0.1169377, Final residual = 4.833269e-16, No Iterations 1
DILUPBiCGStab:  Solving for ILambda_11_0, Initial residual = 0.1693356, Final residual = 7.425037e-16, No Iterations 1
DILUPBiCGStab:  Solving for ILambda_12_0, Initial residual = 0.3612794, Final residual = 0.004407874, No Iterations 4
DILUPBiCGStab:  Solving for ILambda_13_0, Initial residual = 0.1168557, Final residual = 0.003827709, No Iterations 9
DILUPBiCGStab:  Solving for ILambda_14_0, Initial residual = 0.1689296, Final residual = 0.007275865, No Iterations 11
DILUPBiCGStab:  Solving for ILambda_15_0, Initial residual = 0.09918221, Final residual = 0.009886805, No Iterations 17
Radiation solver iter: 2
DILUPBiCGStab:  Solving for ILambda_0_0, Initial residual = 0.1016166, Final residual = 1.745872e-16, No Iterations 1
DILUPBiCGStab:  Solving for ILambda_1_0, Initial residual = 0.09591596, Final residual = 1.375499e-16, No Iterations 1
DILUPBiCGStab:  Solving for ILambda_2_0, Initial residual = 0.09537529, Final residual = 1.262282e-16, No Iterations 1
DILUPBiCGStab:  Solving for ILambda_3_0, Initial residual = 0.07232318, Final residual = 1.365228e-16, No Iterations 1
DILUPBiCGStab:  Solving for ILambda_4_0, Initial residual = 0.1436458, Final residual = 0.01301157, No Iterations 2
DILUPBiCGStab:  Solving for ILambda_5_0, Initial residual = 0.1268566, Final residual = 0.006382458, No Iterations 7
DILUPBiCGStab:  Solving for ILambda_6_0, Initial residual = 0.1364466, Final residual = 0.01105532, No Iterations 8
DILUPBiCGStab:  Solving for ILambda_7_0, Initial residual = 0.1318535, Final residual = 0.0106481, No Iterations 11
DILUPBiCGStab:  Solving for ILambda_8_0, Initial residual = 0.0242795, Final residual = 5.015913e-17, No Iterations 1
DILUPBiCGStab:  Solving for ILambda_9_0, Initial residual = 0.02809748, Final residual = 4.997214e-17, No Iterations 1
DILUPBiCGStab:  Solving for ILambda_10_0, Initial residual = 0.03511005, Final residual = 7.418645e-17, No Iterations 1
DILUPBiCGStab:  Solving for ILambda_11_0, Initial residual = 0.04095796, Final residual = 1.249854e-16, No Iterations 1
DILUPBiCGStab:  Solving for ILambda_12_0, Initial residual = 0.05874524, Final residual = 0.00525651, No Iterations 3
DILUPBiCGStab:  Solving for ILambda_13_0, Initial residual = 0.03141386, Final residual = 0.001937532, No Iterations 9
DILUPBiCGStab:  Solving for ILambda_14_0, Initial residual = 0.03249795, Final residual = 0.002909118, No Iterations 12
DILUPBiCGStab:  Solving for ILambda_15_0, Initial residual = 0.0285364, Final residual = 0.00257965, No Iterations 12
Radiation solver iter: 3
DILUPBiCGStab:  Solving for ILambda_0_0, Initial residual = 0.0752696, Final residual = 9.061913e-17, No Iterations 1
DILUPBiCGStab:  Solving for ILambda_1_0, Initial residual = 0.0663396, Final residual = 5.847396e-17, No Iterations 1
DILUPBiCGStab:  Solving for ILambda_2_0, Initial residual = 0.05667963, Final residual = 4.535889e-17, No Iterations 1
DILUPBiCGStab:  Solving for ILambda_3_0, Initial residual = 0.02632817, Final residual = 2.199822e-17, No Iterations 1
DILUPBiCGStab:  Solving for ILambda_4_0, Initial residual = 0.03436769, Final residual = 0.002331257, No Iterations 2
DILUPBiCGStab:  Solving for ILambda_5_0, Initial residual = 0.06812064, Final residual = 0.004205805, No Iterations 5
DILUPBiCGStab:  Solving for ILambda_6_0, Initial residual = 0.09754588, Final residual = 0.009600965, No Iterations 4
DILUPBiCGStab:  Solving for ILambda_7_0, Initial residual = 0.1039231, Final residual = 0.009414623, No Iterations 7
DILUPBiCGStab:  Solving for ILambda_8_0, Initial residual = 0.01657739, Final residual = 2.282894e-17, No Iterations 1
DILUPBiCGStab:  Solving for ILambda_9_0, Initial residual = 0.01930929, Final residual = 2.619754e-17, No Iterations 1
DILUPBiCGStab:  Solving for ILambda_10_0, Initial residual = 0.02239574, Final residual = 3.747977e-17, No Iterations 1
DILUPBiCGStab:  Solving for ILambda_11_0, Initial residual = 0.02120295, Final residual = 5.491356e-17, No Iterations 1
DILUPBiCGStab:  Solving for ILambda_12_0, Initial residual = 0.02231088, Final residual = 0.0001517227, No Iterations 5
DILUPBiCGStab:  Solving for ILambda_13_0, Initial residual = 0.01892563, Final residual = 0.001077015, No Iterations 8
DILUPBiCGStab:  Solving for ILambda_14_0, Initial residual = 0.017033, Final residual = 0.0008414013, No Iterations 10
DILUPBiCGStab:  Solving for ILambda_15_0, Initial residual = 0.01467073, Final residual = 0.001166006, No Iterations 10
Radiation solver iter: 4
DILUPBiCGStab:  Solving for ILambda_0_0, Initial residual = 0.06162561, Final residual = 7.359646e-17, No Iterations 1
DILUPBiCGStab:  Solving for ILambda_1_0, Initial residual = 0.05050775, Final residual = 4.258074e-17, No Iterations 1
DILUPBiCGStab:  Solving for ILambda_2_0, Initial residual = 0.03598277, Final residual = 2.971685e-17, No Iterations 1
DILUPBiCGStab:  Solving for ILambda_3_0, Initial residual = 0.01014538, Final residual = 8.274822e-18, No Iterations 1
DILUPBiCGStab:  Solving for ILambda_4_0, Initial residual = 0.008952, Final residual = 0.0006289736, No Iterations 2
DILUPBiCGStab:  Solving for ILambda_5_0, Initial residual = 0.0426045, Final residual = 0.001934764, No Iterations 5
DILUPBiCGStab:  Solving for ILambda_6_0, Initial residual = 0.07664833, Final residual = 0.00749468, No Iterations 3
DILUPBiCGStab:  Solving for ILambda_7_0, Initial residual = 0.09260537, Final residual = 0.008479561, No Iterations 5
DILUPBiCGStab:  Solving for ILambda_8_0, Initial residual = 0.01304984, Final residual = 1.767262e-17, No Iterations 1
DILUPBiCGStab:  Solving for ILambda_9_0, Initial residual = 0.01520007, Final residual = 1.947441e-17, No Iterations 1
DILUPBiCGStab:  Solving for ILambda_10_0, Initial residual = 0.0162464, Final residual = 2.599029e-17, No Iterations 1
DILUPBiCGStab:  Solving for ILambda_11_0, Initial residual = 0.01254288, Final residual = 3.407362e-17, No Iterations 1
DILUPBiCGStab:  Solving for ILambda_12_0, Initial residual = 0.0119691, Final residual = 6.916693e-05, No Iterations 5
DILUPBiCGStab:  Solving for ILambda_13_0, Initial residual = 0.01320847, Final residual = 0.00107169, No Iterations 7
DILUPBiCGStab:  Solving for ILambda_14_0, Initial residual = 0.01258198, Final residual = 0.001113164, No Iterations 9
DILUPBiCGStab:  Solving for ILambda_15_0, Initial residual = 0.01079082, Final residual = 0.0006149353, No Iterations 10
Radiation solver iter: 5
DILUPBiCGStab:  Solving for ILambda_0_0, Initial residual = 0.0541303, Final residual = 5.756538e-17, No Iterations 1
DILUPBiCGStab:  Solving for ILambda_1_0, Initial residual = 0.04075125, Final residual = 3.324656e-17, No Iterations 1
DILUPBiCGStab:  Solving for ILambda_2_0, Initial residual = 0.02426847, Final residual = 1.41811e-17, No Iterations 1
DILUPBiCGStab:  Solving for ILambda_3_0, Initial residual = 0.003970345, Final residual = 3.395126e-18, No Iterations 1
DILUPBiCGStab:  Solving for ILambda_4_0, Initial residual = 0.003604409, Final residual = 0.000299663, No Iterations 2
DILUPBiCGStab:  Solving for ILambda_5_0, Initial residual = 0.02827679, Final residual = 0.002551765, No Iterations 3
DILUPBiCGStab:  Solving for ILambda_6_0, Initial residual = 0.06356638, Final residual = 0.004943457, No Iterations 3
DILUPBiCGStab:  Solving for ILambda_7_0, Initial residual = 0.08333036, Final residual = 0.007492151, No Iterations 5
DILUPBiCGStab:  Solving for ILambda_8_0, Initial residual = 0.01101239, Final residual = 1.313663e-17, No Iterations 1
DILUPBiCGStab:  Solving for ILambda_9_0, Initial residual = 0.01246357, Final residual = 1.49048e-17, No Iterations 1
DILUPBiCGStab:  Solving for ILambda_10_0, Initial residual = 0.01232456, Final residual = 1.891754e-17, No Iterations 1
DILUPBiCGStab:  Solving for ILambda_11_0, Initial residual = 0.008093677, Final residual = 2.300681e-17, No Iterations 1
DILUPBiCGStab:  Solving for ILambda_12_0, Initial residual = 0.007915349, Final residual = 2.823516e-05, No Iterations 5
DILUPBiCGStab:  Solving for ILambda_13_0, Initial residual = 0.009577956, Final residual = 0.0003853013, No Iterations 9
DILUPBiCGStab:  Solving for ILambda_14_0, Initial residual = 0.01019734, Final residual = 0.0009534558, No Iterations 11
DILUPBiCGStab:  Solving for ILambda_15_0, Initial residual = 0.008874593, Final residual = 0.0006835132, No Iterations 7
Radiation solver iter: 6
DILUPBiCGStab:  Solving for ILambda_0_0, Initial residual = 0.04807809, Final residual = 5.119667e-17, No Iterations 1
DILUPBiCGStab:  Solving for ILambda_1_0, Initial residual = 0.03276484, Final residual = 2.249015e-17, No Iterations 1
DILUPBiCGStab:  Solving for ILambda_2_0, Initial residual = 0.01639308, Final residual = 1.014963e-17, No Iterations 1
DILUPBiCGStab:  Solving for ILambda_3_0, Initial residual = 0.001531831, Final residual = 1.15972e-18, No Iterations 1
DILUPBiCGStab:  Solving for ILambda_4_0, Initial residual = 0.001475889, Final residual = 9.932165e-05, No Iterations 2
DILUPBiCGStab:  Solving for ILambda_5_0, Initial residual = 0.01846764, Final residual = 0.001774465, No Iterations 3
DILUPBiCGStab:  Solving for ILambda_6_0, Initial residual = 0.05171089, Final residual = 0.004796286, No Iterations 3
DILUPBiCGStab:  Solving for ILambda_7_0, Initial residual = 0.07695434, Final residual = 0.004230447, No Iterations 6
DILUPBiCGStab:  Solving for ILambda_8_0, Initial residual = 0.009438238, Final residual = 1.016028e-17, No Iterations 1
DILUPBiCGStab:  Solving for ILambda_9_0, Initial residual = 0.01013991, Final residual = 1.169688e-17, No Iterations 1
DILUPBiCGStab:  Solving for ILambda_10_0, Initial residual = 0.009320694, Final residual = 1.328428e-17, No Iterations 1
DILUPBiCGStab:  Solving for ILambda_11_0, Initial residual = 0.005659352, Final residual = 1.662415e-17, No Iterations 1
DILUPBiCGStab:  Solving for ILambda_12_0, Initial residual = 0.005655474, Final residual = 0.0003256043, No Iterations 4
DILUPBiCGStab:  Solving for ILambda_13_0, Initial residual = 0.006871337, Final residual = 0.0006153329, No Iterations 7
DILUPBiCGStab:  Solving for ILambda_14_0, Initial residual = 0.008068132, Final residual = 0.0007937638, No Iterations 9
DILUPBiCGStab:  Solving for ILambda_15_0, Initial residual = 0.007507344, Final residual = 0.000348778, No Iterations 7
Radiation solver iter: 7
DILUPBiCGStab:  Solving for ILambda_0_0, Initial residual = 0.04253202, Final residual = 4.245682e-17, No Iterations 1
DILUPBiCGStab:  Solving for ILambda_1_0, Initial residual = 0.02624552, Final residual = 1.650263e-17, No Iterations 1
DILUPBiCGStab:  Solving for ILambda_2_0, Initial residual = 0.01082228, Final residual = 6.130324e-18, No Iterations 1
DILUPBiCGStab:  Solving for ILambda_3_0, Initial residual = 0.0006206801, Final residual = 7.367539e-19, No Iterations 1
DILUPBiCGStab:  Solving for ILambda_4_0, Initial residual = 0.0006654549, Final residual = 2.148394e-05, No Iterations 4
DILUPBiCGStab:  Solving for ILambda_5_0, Initial residual = 0.01181312, Final residual = 0.001100271, No Iterations 3
DILUPBiCGStab:  Solving for ILambda_6_0, Initial residual = 0.04145569, Final residual = 0.0030826, No Iterations 3
DILUPBiCGStab:  Solving for ILambda_7_0, Initial residual = 0.0696922, Final residual = 0.004862775, No Iterations 4
DILUPBiCGStab:  Solving for ILambda_8_0, Initial residual = 0.008096122, Final residual = 7.458514e-18, No Iterations 1
DILUPBiCGStab:  Solving for ILambda_9_0, Initial residual = 0.008251086, Final residual = 8.794647e-18, No Iterations 1
DILUPBiCGStab:  Solving for ILambda_10_0, Initial residual = 0.007109437, Final residual = 9.517386e-18, No Iterations 1
DILUPBiCGStab:  Solving for ILambda_11_0, Initial residual = 0.004323746, Final residual = 1.255491e-17, No Iterations 1
DILUPBiCGStab:  Solving for ILambda_12_0, Initial residual = 0.004413756, Final residual = 0.0001870116, No Iterations 4
DILUPBiCGStab:  Solving for ILambda_13_0, Initial residual = 0.005403338, Final residual = 9.627353e-05, No Iterations 10
DILUPBiCGStab:  Solving for ILambda_14_0, Initial residual = 0.006360556, Final residual = 0.000621655, No Iterations 7
DILUPBiCGStab:  Solving for ILambda_15_0, Initial residual = 0.006270529, Final residual = 0.0005442332, No Iterations 5
Radiation solver iter: 8
DILUPBiCGStab:  Solving for ILambda_0_0, Initial residual = 0.0375296, Final residual = 3.408066e-17, No Iterations 1
DILUPBiCGStab:  Solving for ILambda_1_0, Initial residual = 0.02090147, Final residual = 1.15122e-17, No Iterations 1
DILUPBiCGStab:  Solving for ILambda_2_0, Initial residual = 0.006938357, Final residual = 3.779401e-18, No Iterations 1
DILUPBiCGStab:  Solving for ILambda_5_0, Initial residual = 0.007219149, Final residual = 0.0005996554, No Iterations 3
DILUPBiCGStab:  Solving for ILambda_6_0, Initial residual = 0.03270926, Final residual = 0.002775451, No Iterations 2
DILUPBiCGStab:  Solving for ILambda_7_0, Initial residual = 0.06379485, Final residual = 0.006221257, No Iterations 3
DILUPBiCGStab:  Solving for ILambda_8_0, Initial residual = 0.006912202, Final residual = 6.184168e-18, No Iterations 1
DILUPBiCGStab:  Solving for ILambda_9_0, Initial residual = 0.006783234, Final residual = 6.674165e-18, No Iterations 1
DILUPBiCGStab:  Solving for ILambda_10_0, Initial residual = 0.005552361, Final residual = 7.292042e-18, No Iterations 1
DILUPBiCGStab:  Solving for ILambda_11_0, Initial residual = 0.003523779, Final residual = 9.996139e-18, No Iterations 1
DILUPBiCGStab:  Solving for ILambda_12_0, Initial residual = 0.003637048, Final residual = 0.0001764173, No Iterations 4
DILUPBiCGStab:  Solving for ILambda_13_0, Initial residual = 0.004341262, Final residual = 0.0003419676, No Iterations 7
DILUPBiCGStab:  Solving for ILambda_14_0, Initial residual = 0.00510537, Final residual = 0.0001727478, No Iterations 10
DILUPBiCGStab:  Solving for ILambda_15_0, Initial residual = 0.005331505, Final residual = 0.0005049888, No Iterations 5
Radiation solver iter: 9
DILUPBiCGStab:  Solving for ILambda_0_0, Initial residual = 0.03301144, Final residual = 3.025972e-17, No Iterations 1
DILUPBiCGStab:  Solving for ILambda_1_0, Initial residual = 0.01651399, Final residual = 8.569434e-18, No Iterations 1
DILUPBiCGStab:  Solving for ILambda_2_0, Initial residual = 0.004328835, Final residual = 2.124578e-18, No Iterations 1
DILUPBiCGStab:  Solving for ILambda_5_0, Initial residual = 0.004330569, Final residual = 0.0002321092, No Iterations 3
[...]
limitTemperature limitT Unlimited Tmax 479.4288
GAMG:  Solving for p_rgh, Initial residual = 0.0004890869, Final residual = 3.383688e-06, No Iterations 2
limitVelocity limitU Limited 0 (0%) of cells, with max limit 8
time step continuity errors : sum local = 1.286968e-05, global = 2.250087e-17, cumulative = 3.160512e-15
rho min/max : 0.659975 0.978216
DILUPBiCGStab:  Solving for omega, Initial residual = 0.0001585804, Final residual = 4.529645e-06, No Iterations 1
DILUPBiCGStab:  Solving for k, Initial residual = 0.0005176755, Final residual = 1.001302e-05, No Iterations 1
ExecutionTime = 26.84 s  ClockTime = 27 s

Time = 1689

DILUPBiCGStab:  Solving for h, Initial residual = 0.0005221868, Final residual = 1.54842e-07, No Iterations 1
limitTemperature limitT Lower limited 0 (0%) of cells, with min limit 280
limitTemperature limitT Upper limited 0 (0%) of cells, with max limit 1200
limitTemperature limitT Unlimited Tmin 415.792
limitTemperature limitT Unlimited Tmax 479.4379
Radiation solver iter: 0
DILUPBiCGStab:  Solving for ILambda_0_0, Initial residual = 0.000362508, Final residual = 2.05798e-18, No Iterations 1
DILUPBiCGStab:  Solving for ILambda_1_0, Initial residual = 0.0004024681, Final residual = 1.837886e-18, No Iterations 1
DILUPBiCGStab:  Solving for ILambda_2_0, Initial residual = 0.0005392452, Final residual = 2.039898e-18, No Iterations 1
DILUPBiCGStab:  Solving for ILambda_3_0, Initial residual = 0.0008233787, Final residual = 3.186585e-18, No Iterations 1
DILUPBiCGStab:  Solving for ILambda_4_0, Initial residual = 0.0008779996, Final residual = 8.689691e-05, No Iterations 3
DILUPBiCGStab:  Solving for ILambda_5_0, Initial residual = 0.0006251664, Final residual = 1.117989e-05, No Iterations 9
DILUPBiCGStab:  Solving for ILambda_6_0, Initial residual = 0.000466071, Final residual = 7.457598e-05, No Iterations 11
DILUPBiCGStab:  Solving for ILambda_7_0, Initial residual = 0.0004296291, Final residual = 5.258956e-05, No Iterations 20
DILUPBiCGStab:  Solving for ILambda_8_0, Initial residual = 0.0003456184, Final residual = 1.559821e-18, No Iterations 1
DILUPBiCGStab:  Solving for ILambda_9_0, Initial residual = 0.0003192595, Final residual = 1.053851e-18, No Iterations 1
DILUPBiCGStab:  Solving for ILambda_10_0, Initial residual = 0.0003579976, Final residual = 1.141324e-18, No Iterations 1
DILUPBiCGStab:  Solving for ILambda_11_0, Initial residual = 0.0004479358, Final residual = 1.602573e-18, No Iterations 1
DILUPBiCGStab:  Solving for ILambda_12_0, Initial residual = 0.0006317003, Final residual = 3.797027e-05, No Iterations 4
DILUPBiCGStab:  Solving for ILambda_13_0, Initial residual = 0.000594307, Final residual = 7.39585e-05, No Iterations 7
DILUPBiCGStab:  Solving for ILambda_14_0, Initial residual = 0.0005816008, Final residual = 3.070479e-06, No Iterations 15
DILUPBiCGStab:  Solving for ILambda_15_0, Initial residual = 0.0006932215, Final residual = 7.524914e-05, No Iterations 14
GAMG:  Solving for p_rgh, Initial residual = 0.0004871615, Final residual = 3.393316e-06, No Iterations 2
limitVelocity limitU Limited 0 (0%) of cells, with max limit 8
time step continuity errors : sum local = 1.292316e-05, global = 1.211984e-17, cumulative = 3.172632e-15
rho min/max : 0.659969 0.9782185
DILUPBiCGStab:  Solving for omega, Initial residual = 0.0001579006, Final residual = 5.053303e-06, No Iterations 1
DILUPBiCGStab:  Solving for k, Initial residual = 0.0005182512, Final residual = 9.988221e-06, No Iterations 1
ExecutionTime = 26.9 s  ClockTime = 27 s

Time = 1690

DILUPBiCGStab:  Solving for h, Initial residual = 0.0005216187, Final residual = 1.545998e-07, No Iterations 1
limitTemperature limitT Lower limited 0 (0%) of cells, with min limit 280
limitTemperature limitT Upper limited 0 (0%) of cells, with max limit 1200
limitTemperature limitT Unlimited Tmin 415.7859
limitTemperature limitT Unlimited Tmax 479.4469
GAMG:  Solving for p_rgh, Initial residual = 0.0004814747, Final residual = 3.409217e-06, No Iterations 2
limitVelocity limitU Limited 0 (0%) of cells, with max limit 8
time step continuity errors : sum local = 1.304068e-05, global = -5.877984e-18, cumulative = 3.166754e-15
rho min/max : 0.6599631 0.9782213
DILUPBiCGStab:  Solving for omega, Initial residual = 0.000164295, Final residual = 4.827926e-06, No Iterations 1
DILUPBiCGStab:  Solving for k, Initial residual = 0.0005192424, Final residual = 1.007585e-05, No Iterations 1
ExecutionTime = 26.91 s  ClockTime = 27 s

Time = 1691

DILUPBiCGStab:  Solving for h, Initial residual = 0.0005210647, Final residual = 1.543509e-07, No Iterations 1
limitTemperature limitT Lower limited 0 (0%) of cells, with min limit 280
limitTemperature limitT Upper limited 0 (0%) of cells, with max limit 1200
limitTemperature limitT Unlimited Tmin 415.7797
limitTemperature limitT Unlimited Tmax 479.456
GAMG:  Solving for p_rgh, Initial residual = 0.0004781532, Final residual = 3.432176e-06, No Iterations 2
limitVelocity limitU Limited 0 (0%) of cells, with max limit 8
time step continuity errors : sum local = 1.313368e-05, global = 1.762087e-17, cumulative = 3.184375e-15
rho min/max : 0.659957 0.978224
DILUPBiCGStab:  Solving for omega, Initial residual = 0.0001666457, Final residual = 4.945732e-06, No Iterations 1
DILUPBiCGStab:  Solving for k, Initial residual = 0.0005186922, Final residual = 1.000091e-05, No Iterations 1
ExecutionTime = 26.92 s  ClockTime = 27 s

Time = 1692

DILUPBiCGStab:  Solving for h, Initial residual = 0.0005204578, Final residual = 1.540988e-07, No Iterations 1
limitTemperature limitT Lower limited 0 (0%) of cells, with min limit 280
limitTemperature limitT Upper limited 0 (0%) of cells, with max limit 1200
limitTemperature limitT Unlimited Tmin 415.7736
limitTemperature limitT Unlimited Tmax 479.465
Radiation solver iter: 0
DILUPBiCGStab:  Solving for ILambda_0_0, Initial residual = 0.0003609209, Final residual = 2.017691e-18, No Iterations 1
DILUPBiCGStab:  Solving for ILambda_1_0, Initial residual = 0.0004051305, Final residual = 1.810489e-18, No Iterations 1
DILUPBiCGStab:  Solving for ILambda_2_0, Initial residual = 0.0005472522, Final residual = 2.173679e-18, No Iterations 1
DILUPBiCGStab:  Solving for ILambda_3_0, Initial residual = 0.0008392067, Final residual = 3.402007e-18, No Iterations 1
DILUPBiCGStab:  Solving for ILambda_4_0, Initial residual = 0.0009535048, Final residual = 2.012145e-07, No Iterations 6
DILUPBiCGStab:  Solving for ILambda_5_0, Initial residual = 0.0005925606, Final residual = 5.016227e-05, No Iterations 8
DILUPBiCGStab:  Solving for ILambda_6_0, Initial residual = 0.0004780809, Final residual = 8.752732e-07, No Iterations 16
DILUPBiCGStab:  Solving for ILambda_7_0, Initial residual = 0.0004101382, Final residual = 9.619524e-05, No Iterations 18
DILUPBiCGStab:  Solving for ILambda_8_0, Initial residual = 0.0003472277, Final residual = 1.586526e-18, No Iterations 1
DILUPBiCGStab:  Solving for ILambda_9_0, Initial residual = 0.0003238509, Final residual = 1.102885e-18, No Iterations 1
DILUPBiCGStab:  Solving for ILambda_10_0, Initial residual = 0.0003678459, Final residual = 1.148293e-18, No Iterations 1
DILUPBiCGStab:  Solving for ILambda_11_0, Initial residual = 0.0004693914, Final residual = 1.696989e-18, No Iterations 1
DILUPBiCGStab:  Solving for ILambda_12_0, Initial residual = 0.0006249234, Final residual = 9.485149e-05, No Iterations 3
DILUPBiCGStab:  Solving for ILambda_13_0, Initial residual = 0.0006003499, Final residual = 4.75227e-06, No Iterations 10
DILUPBiCGStab:  Solving for ILambda_14_0, Initial residual = 0.000530982, Final residual = 9.930858e-05, No Iterations 9
DILUPBiCGStab:  Solving for ILambda_15_0, Initial residual = 0.0006939853, Final residual = 7.801767e-05, No Iterations 16
GAMG:  Solving for p_rgh, Initial residual = 0.0004739805, Final residual = 3.435422e-06, No Iterations 2
limitVelocity limitU Limited 0 (0%) of cells, with max limit 8
time step continuity errors : sum local = 1.319736e-05, global = -4.421179e-17, cumulative = 3.140163e-15
rho min/max : 0.6599506 0.9782265
DILUPBiCGStab:  Solving for omega, Initial residual = 0.0001803091, Final residual = 6.553804e-06, No Iterations 1
DILUPBiCGStab:  Solving for k, Initial residual = 0.0005191263, Final residual = 1.003917e-05, No Iterations 1
ExecutionTime = 26.99 s  ClockTime = 27 s

Time = 1693

DILUPBiCGStab:  Solving for h, Initial residual = 0.0005198849, Final residual = 1.538401e-07, No Iterations 1
limitTemperature limitT Lower limited 0 (0%) of cells, with min limit 280
limitTemperature limitT Upper limited 0 (0%) of cells, with max limit 1200
limitTemperature limitT Unlimited Tmin 415.7674
limitTemperature limitT Unlimited Tmax 479.474
GAMG:  Solving for p_rgh, Initial residual = 0.0004692093, Final residual = 3.421166e-06, No Iterations 2
limitVelocity limitU Limited 0 (0%) of cells, with max limit 8
time step continuity errors : sum local = 1.317238e-05, global = 3.399621e-17, cumulative = 3.17416e-15
rho min/max : 0.6599451 0.9782292
DILUPBiCGStab:  Solving for omega, Initial residual = 0.0001801242, Final residual = 6.509316e-06, No Iterations 1
DILUPBiCGStab:  Solving for k, Initial residual = 0.0005187394, Final residual = 9.858537e-06, No Iterations 1
ExecutionTime = 27 s  ClockTime = 27 s

Time = 1694

DILUPBiCGStab:  Solving for h, Initial residual = 0.0005193036, Final residual = 1.535891e-07, No Iterations 1
limitTemperature limitT Lower limited 0 (0%) of cells, with min limit 280
limitTemperature limitT Upper limited 0 (0%) of cells, with max limit 1200
limitTemperature limitT Unlimited Tmin 415.7613
limitTemperature limitT Unlimited Tmax 479.4828
GAMG:  Solving for p_rgh, Initial residual = 0.0004694326, Final residual = 3.382633e-06, No Iterations 2
limitVelocity limitU Limited 0 (0%) of cells, with max limit 8
time step continuity errors : sum local = 1.311223e-05, global = 1.879748e-17, cumulative = 3.192957e-15
rho min/max : 0.6599394 0.9782318
DILUPBiCGStab:  Solving for omega, Initial residual = 0.0001760472, Final residual = 6.770037e-06, No Iterations 1
DILUPBiCGStab:  Solving for k, Initial residual = 0.0005197389, Final residual = 1.007914e-05, No Iterations 1
ExecutionTime = 27.01 s  ClockTime = 27 s

Time = 1695

DILUPBiCGStab:  Solving for h, Initial residual = 0.0005187382, Final residual = 1.533403e-07, No Iterations 1
limitTemperature limitT Lower limited 0 (0%) of cells, with min limit 280
limitTemperature limitT Upper limited 0 (0%) of cells, with max limit 1200
limitTemperature limitT Unlimited Tmin 415.7552
limitTemperature limitT Unlimited Tmax 479.4916
Radiation solver iter: 0
DILUPBiCGStab:  Solving for ILambda_0_0, Initial residual = 0.0003597351, Final residual = 2.069578e-18, No Iterations 1
DILUPBiCGStab:  Solving for ILambda_1_0, Initial residual = 0.0004072882, Final residual = 1.787819e-18, No Iterations 1
DILUPBiCGStab:  Solving for ILambda_2_0, Initial residual = 0.0005519792, Final residual = 2.214528e-18, No Iterations 1
DILUPBiCGStab:  Solving for ILambda_3_0, Initial residual = 0.0008472955, Final residual = 3.453902e-18, No Iterations 1
DILUPBiCGStab:  Solving for ILambda_4_0, Initial residual = 0.0009073537, Final residual = 8.021691e-05, No Iterations 4
DILUPBiCGStab:  Solving for ILambda_5_0, Initial residual = 0.0006251539, Final residual = 1.330979e-05, No Iterations 9
DILUPBiCGStab:  Solving for ILambda_6_0, Initial residual = 0.0004275338, Final residual = 3.523094e-05, No Iterations 12
DILUPBiCGStab:  Solving for ILambda_7_0, Initial residual = 0.0004481417, Final residual = 3.049519e-05, No Iterations 20
DILUPBiCGStab:  Solving for ILambda_8_0, Initial residual = 0.0003452339, Final residual = 1.607815e-18, No Iterations 1
DILUPBiCGStab:  Solving for ILambda_9_0, Initial residual = 0.0003201903, Final residual = 1.072222e-18, No Iterations 1
DILUPBiCGStab:  Solving for ILambda_10_0, Initial residual = 0.000361245, Final residual = 1.10778e-18, No Iterations 1
DILUPBiCGStab:  Solving for ILambda_11_0, Initial residual = 0.0004570319, Final residual = 1.637475e-18, No Iterations 1
DILUPBiCGStab:  Solving for ILambda_12_0, Initial residual = 0.0006503186, Final residual = 6.768111e-05, No Iterations 4
DILUPBiCGStab:  Solving for ILambda_13_0, Initial residual = 0.00054038, Final residual = 9.51831e-05, No Iterations 7
DILUPBiCGStab:  Solving for ILambda_14_0, Initial residual = 0.0005988997, Final residual = 3.251424e-05, No Iterations 12
DILUPBiCGStab:  Solving for ILambda_15_0, Initial residual = 0.0006757443, Final residual = 5.564764e-05, No Iterations 18
GAMG:  Solving for p_rgh, Initial residual = 0.0004704066, Final residual = 3.325498e-06, No Iterations 2
limitVelocity limitU Limited 0 (0%) of cells, with max limit 8
time step continuity errors : sum local = 1.295738e-05, global = -5.956206e-17, cumulative = 3.133395e-15
rho min/max : 0.6599336 0.9782343
DILUPBiCGStab:  Solving for omega, Initial residual = 0.0001688388, Final residual = 5.437824e-06, No Iterations 1
DILUPBiCGStab:  Solving for k, Initial residual = 0.0005185311, Final residual = 9.757924e-06, No Iterations 1
ExecutionTime = 27.08 s  ClockTime = 27 s

Time = 1696

DILUPBiCGStab:  Solving for h, Initial residual = 0.0005181166, Final residual = 1.530565e-07, No Iterations 1
limitTemperature limitT Lower limited 0 (0%) of cells, with min limit 280
limitTemperature limitT Upper limited 0 (0%) of cells, with max limit 1200
limitTemperature limitT Unlimited Tmin 415.7491
limitTemperature limitT Unlimited Tmax 479.5002
GAMG:  Solving for p_rgh, Initial residual = 0.0004705871, Final residual = 3.301188e-06, No Iterations 2
limitVelocity limitU Limited 0 (0%) of cells, with max limit 8
time step continuity errors : sum local = 1.290698e-05, global = -5.239691e-17, cumulative = 3.080998e-15
rho min/max : 0.6599289 0.9782371
DILUPBiCGStab:  Solving for omega, Initial residual = 0.0001814857, Final residual = 5.832581e-06, No Iterations 1
DILUPBiCGStab:  Solving for k, Initial residual = 0.0005196429, Final residual = 9.82198e-06, No Iterations 1
ExecutionTime = 27.1 s  ClockTime = 27 s

Time = 1697

DILUPBiCGStab:  Solving for h, Initial residual = 0.0005175113, Final residual = 1.527257e-07, No Iterations 1
limitTemperature limitT Lower limited 0 (0%) of cells, with min limit 280
limitTemperature limitT Upper limited 0 (0%) of cells, with max limit 1200
limitTemperature limitT Unlimited Tmin 415.7431
limitTemperature limitT Unlimited Tmax 479.5088
GAMG:  Solving for p_rgh, Initial residual = 0.0004636031, Final residual = 3.279013e-06, No Iterations 2
limitVelocity limitU Limited 0 (0%) of cells, with max limit 8
time step continuity errors : sum local = 1.275153e-05, global = -1.324768e-18, cumulative = 3.079673e-15
rho min/max : 0.6599241 0.9782397
DILUPBiCGStab:  Solving for omega, Initial residual = 0.0001838862, Final residual = 7.145101e-06, No Iterations 1
DILUPBiCGStab:  Solving for k, Initial residual = 0.0005201776, Final residual = 9.914412e-06, No Iterations 1
ExecutionTime = 27.11 s  ClockTime = 27 s

Time = 1698

DILUPBiCGStab:  Solving for h, Initial residual = 0.0005168945, Final residual = 1.524629e-07, No Iterations 1
limitTemperature limitT Lower limited 0 (0%) of cells, with min limit 280
limitTemperature limitT Upper limited 0 (0%) of cells, with max limit 1200
limitTemperature limitT Unlimited Tmin 415.737
limitTemperature limitT Unlimited Tmax 479.5172
Radiation solver iter: 0
DILUPBiCGStab:  Solving for ILambda_0_0, Initial residual = 0.0003564, Final residual = 2.055595e-18, No Iterations 1
DILUPBiCGStab:  Solving for ILambda_1_0, Initial residual = 0.0004056458, Final residual = 1.760483e-18, No Iterations 1
DILUPBiCGStab:  Solving for ILambda_2_0, Initial residual = 0.0005481448, Final residual = 2.096703e-18, No Iterations 1
DILUPBiCGStab:  Solving for ILambda_3_0, Initial residual = 0.0008417154, Final residual = 3.504152e-18, No Iterations 1
DILUPBiCGStab:  Solving for ILambda_4_0, Initial residual = 0.0009588559, Final residual = 2.120549e-06, No Iterations 5
DILUPBiCGStab:  Solving for ILambda_5_0, Initial residual = 0.0005982633, Final residual = 4.072445e-05, No Iterations 10
DILUPBiCGStab:  Solving for ILambda_6_0, Initial residual = 0.0004428084, Final residual = 9.641199e-05, No Iterations 13
DILUPBiCGStab:  Solving for ILambda_7_0, Initial residual = 0.0003906333, Final residual = 4.498842e-05, No Iterations 25
DILUPBiCGStab:  Solving for ILambda_8_0, Initial residual = 0.000345261, Final residual = 1.570389e-18, No Iterations 1
DILUPBiCGStab:  Solving for ILambda_9_0, Initial residual = 0.0003205843, Final residual = 1.048239e-18, No Iterations 1
DILUPBiCGStab:  Solving for ILambda_10_0, Initial residual = 0.0003624348, Final residual = 1.149274e-18, No Iterations 1
DILUPBiCGStab:  Solving for ILambda_11_0, Initial residual = 0.0004602477, Final residual = 1.670286e-18, No Iterations 1
DILUPBiCGStab:  Solving for ILambda_12_0, Initial residual = 0.0006379093, Final residual = 8.947099e-05, No Iterations 4
DILUPBiCGStab:  Solving for ILambda_13_0, Initial residual = 0.0006120611, Final residual = 4.952768e-05, No Iterations 8
DILUPBiCGStab:  Solving for ILambda_14_0, Initial residual = 0.0005360893, Final residual = 8.533149e-05, No Iterations 9
DILUPBiCGStab:  Solving for ILambda_15_0, Initial residual = 0.0006657589, Final residual = 9.998933e-05, No Iterations 14
GAMG:  Solving for p_rgh, Initial residual = 0.000466925, Final residual = 3.281087e-06, No Iterations 2
limitVelocity limitU Limited 0 (0%) of cells, with max limit 8
time step continuity errors : sum local = 1.274909e-05, global = -3.820775e-17, cumulative = 3.041466e-15
rho min/max : 0.659919 0.9782422
DILUPBiCGStab:  Solving for omega, Initial residual = 0.000180104, Final residual = 6.214359e-06, No Iterations 1
DILUPBiCGStab:  Solving for k, Initial residual = 0.0005222704, Final residual = 1.014143e-05, No Iterations 1
ExecutionTime = 27.18 s  ClockTime = 27 s

Time = 1699

DILUPBiCGStab:  Solving for h, Initial residual = 0.0005163768, Final residual = 1.522174e-07, No Iterations 1
limitTemperature limitT Lower limited 0 (0%) of cells, with min limit 280
limitTemperature limitT Upper limited 0 (0%) of cells, with max limit 1200
limitTemperature limitT Unlimited Tmin 415.731
limitTemperature limitT Unlimited Tmax 479.5255
GAMG:  Solving for p_rgh, Initial residual = 0.0004658089, Final residual = 3.274303e-06, No Iterations 2
limitVelocity limitU Limited 0 (0%) of cells, with max limit 8
time step continuity errors : sum local = 1.269245e-05, global = -6.742625e-17, cumulative = 2.974039e-15
rho min/max : 0.6599146 0.9782449
DILUPBiCGStab:  Solving for omega, Initial residual = 0.0001711587, Final residual = 5.550555e-06, No Iterations 1
DILUPBiCGStab:  Solving for k, Initial residual = 0.0005210393, Final residual = 9.883377e-06, No Iterations 1
ExecutionTime = 27.19 s  ClockTime = 27 s

Time = 1700

DILUPBiCGStab:  Solving for h, Initial residual = 0.0005157763, Final residual = 1.5196e-07, No Iterations 1
limitTemperature limitT Lower limited 0 (0%) of cells, with min limit 280
limitTemperature limitT Upper limited 0 (0%) of cells, with max limit 1200
limitTemperature limitT Unlimited Tmin 415.725
limitTemperature limitT Unlimited Tmax 479.5338
GAMG:  Solving for p_rgh, Initial residual = 0.0004660369, Final residual = 3.281862e-06, No Iterations 2
limitVelocity limitU Limited 0 (0%) of cells, with max limit 8
time step continuity errors : sum local = 1.273561e-05, global = -6.649231e-18, cumulative = 2.96739e-15
rho min/max : 0.6599099 0.9782475
DILUPBiCGStab:  Solving for omega, Initial residual = 0.0001755182, Final residual = 5.906754e-06, No Iterations 1
DILUPBiCGStab:  Solving for k, Initial residual = 0.0005223299, Final residual = 1.008102e-05, No Iterations 1
ExecutionTime = 27.21 s  ClockTime = 27 s

surfaceFieldValue wallT write:
    areaAverage(plate) of T = 519.3146

surfaceFieldValue wallTriser write:
    areaAverage(riser) of T = 368.645

End

