/*---------------------------------------------------------------------------*\
| =========                 |                                                 |
| \\      /  F ield         | OpenFOAM: The Open Source CFD Toolbox           |
|  \\    /   O peration     | Version:  2312                                  |
|   \\  /    A nd           | Website:  www.openfoam.com                      |
|    \\/     M anipulation  |                                                 |
\*---------------------------------------------------------------------------*/
Build  : _c39a0f64-20231220 OPENFOAM=2312 version=2312
Arch   : "LSB;label=32;scalar=64"
Exec   : buoyantSimpleFoam
Date   : Jul 02 2026
Time   : 08:54:17
Host   : 209d4a0bdd58
PID    : 231
I/O    : uncollated
Case   : /case
nProcs : 1
trapFpe: Floating point exception trapping enabled (FOAM_SIGFPE).
fileModificationChecking : Monitoring run-time modified files using timeStampMaster (fileModificationSkew 5, maxFileModificationPolls 20)
allowSystemOperations : Allowing user-supplied system call operations

// * * * * * * * * * * * * * * * * * * * * * * * * * * * * * * * * * * * * * //
Create time

Create mesh for time = 4800


SIMPLE: convergence criteria
    field p_rgh	 tolerance 1e-05
    field U	 tolerance 1e-05
    field h	 tolerance 1e-05
    field "(k|omega)"	 tolerance 0.001

Reading thermophysical properties

Selecting thermodynamics package 
{
    type            heRhoThermo;
    mixture         pureMixture;
    transport       const;
    thermo          hConst;
    equationOfState perfectGas;
    specie          specie;
    energy          sensibleEnthalpy;
}

Reading field U

Reading/calculating face flux field phi

Creating turbulence model

Selecting turbulence model type RAS
Selecting RAS turbulence model kOmegaSST
Selecting patchDistMethod meshWave
RAS
{
    RASModel        kOmegaSST;
    turbulence      on;
    printCoeffs     on;
    alphaK1         0.85;
    alphaK2         1;
    alphaOmega1     0.5;
    alphaOmega2     0.856;
    gamma1          0.5555556;
    gamma2          0.44;
    beta1           0.075;
    beta2           0.0828;
    betaStar        0.09;
    a1              0.31;
    b1              1;
    c1              10;
    F3              false;
    decayControl    false;
    kInf            0;
    omegaInf        0;
}


Reading g

Reading hRef
Calculating field g.h

Reading field p_rgh

No MRF models present

Selecting radiationModel fvDOM
Selecting absorptionEmissionModel constantAbsorptionEmission
Selecting scatterModel none
Selecting sootModel none
fvDOM : Allocated 16 rays with average orientation:
	I0 : dAve : 	(0.1195698 0.6011177 2.944771e-33) : omega : 	0.7853982 : d : 	(0.1950903 0.9807853 6.123234e-17)
	I1 : dAve : 	(0.3405058 0.509603 2.944771e-33) : omega : 	0.7853982 : d : 	(0.5555702 0.8314696 6.123234e-17)
	I2 : dAve : 	(0.509603 0.3405058 2.944771e-33) : omega : 	0.7853982 : d : 	(0.8314696 0.5555702 6.123234e-17)
	I3 : dAve : 	(0.6011177 0.1195698 2.944771e-33) : omega : 	0.7853982 : d : 	(0.9807853 0.1950903 6.123234e-17)
	I4 : dAve : 	(0.6011177 -0.1195698 2.944771e-33) : omega : 	0.7853982 : d : 	(0.9807853 -0.1950903 6.123234e-17)
	I5 : dAve : 	(0.509603 -0.3405058 2.944771e-33) : omega : 	0.7853982 : d : 	(0.8314696 -0.5555702 6.123234e-17)
	I6 : dAve : 	(0.3405058 -0.509603 2.944771e-33) : omega : 	0.7853982 : d : 	(0.5555702 -0.8314696 6.123234e-17)
	I7 : dAve : 	(0.1195698 -0.6011177 2.944771e-33) : omega : 	0.7853982 : d : 	(0.1950903 -0.9807853 6.123234e-17)
	I8 : dAve : 	(-0.1195698 -0.6011177 2.944771e-33) : omega : 	0.7853982 : d : 	(-0.1950903 -0.9807853 6.123234e-17)
	I9 : dAve : 	(-0.3405058 -0.509603 2.944771e-33) : omega : 	0.7853982 : d : 	(-0.5555702 -0.8314696 6.123234e-17)
	I10 : dAve : 	(-0.509603 -0.3405058 2.944771e-33) : omega : 	0.7853982 : d : 	(-0.8314696 -0.5555702 6.123234e-17)
	I11 : dAve : 	(-0.6011177 -0.1195698 2.944771e-33) : omega : 	0.7853982 : d : 	(-0.9807853 -0.1950903 6.123234e-17)
	I12 : dAve : 	(-0.6011177 0.1195698 2.944771e-33) : omega : 	0.7853982 : d : 	(-0.9807853 0.1950903 6.123234e-17)
	I13 : dAve : 	(-0.509603 0.3405058 2.944771e-33) : omega : 	0.7853982 : d : 	(-0.8314696 0.5555702 6.123234e-17)
	I14 : dAve : 	(-0.3405058 0.509603 2.944771e-33) : omega : 	0.7853982 : d : 	(-0.5555702 0.8314696 6.123234e-17)
	I15 : dAve : 	(-0.1195698 0.6011177 2.944771e-33) : omega : 	0.7853982 : d : 	(-0.1950903 0.9807853 6.123234e-17)
Total omega : 12.56637

Creating finite volume options from "system/fvOptions"

Selecting finite volume options type limitTemperature
    Source: limitT
    - selecting all cells
    - selected 12000 cell(s) with volume 0.473422
Selecting finite volume options type limitVelocity
    Source: limitU
    - selecting all cells
    - selected 12000 cell(s) with volume 0.473422

Starting time loop

surfaceFieldValue wallT:
    operation     = areaAverage


surfaceFieldValue wallTriser:
    operation     = areaAverage


Time = 4801

DILUPBiCGStab:  Solving for h, Initial residual = 7.662149e-05, Final residual = 3.23359e-09, No Iterations 1
limitTemperature limitT Lower limited 0 (0%) of cells, with min limit 280
limitTemperature limitT Upper limited 0 (0%) of cells, with max limit 1200
limitTemperature limitT Unlimited Tmin 418.0236
limitTemperature limitT Unlimited Tmax 504.1908
Radiation solver iter: 0
Selecting boundary radiation Model: lookup
Selecting boundary radiation Model: lookup
Selecting boundary radiation Model: lookup
DILUPBiCGStab:  Solving for ILambda_0_0, Initial residual = 0.08370027, Final residual = 4.852608e-16, No Iterations 1
DILUPBiCGStab:  Solving for ILambda_1_0, Initial residual = 0.1401185, Final residual = 7.552951e-16, No Iterations 1
DILUPBiCGStab:  Solving for ILambda_2_0, Initial residual = 0.210983, Final residual = 1.018478e-15, No Iterations 1
DILUPBiCGStab:  Solving for ILambda_3_0, Initial residual = 0.3387611, Final residual = 1.644061e-15, No Iterations 1
DILUPBiCGStab:  Solving for ILambda_4_0, Initial residual = 0.3393676, Final residual = 0.01539144, No Iterations 4
DILUPBiCGStab:  Solving for ILambda_5_0, Initial residual = 0.2126464, Final residual = 0.01997969, No Iterations 10
DILUPBiCGStab:  Solving for ILambda_6_0, Initial residual = 0.1481954, Final residual = 0.001221281, No Iterations 19
DILUPBiCGStab:  Solving for ILambda_7_0, Initial residual = 0.1128718, Final residual = 0.002258885, No Iterations 31
DILUPBiCGStab:  Solving for ILambda_8_0, Initial residual = 0.1525582, Final residual = 1.420823e-15, No Iterations 1
DILUPBiCGStab:  Solving for ILambda_9_0, Initial residual = 0.2382496, Final residual = 1.557305e-15, No Iterations 1
DILUPBiCGStab:  Solving for ILambda_10_0, Initial residual = 0.332529, Final residual = 1.871165e-15, No Iterations 1
DILUPBiCGStab:  Solving for ILambda_11_0, Initial residual = 0.449832, Final residual = 2.279661e-15, No Iterations 1
DILUPBiCGStab:  Solving for ILambda_12_0, Initial residual = 0.4871729, Final residual = 0.00527827, No Iterations 5
DILUPBiCGStab:  Solving for ILambda_13_0, Initial residual = 0.3924874, Final residual = 0.0004750789, No Iterations 12
DILUPBiCGStab:  Solving for ILambda_14_0, Initial residual = 0.3031759, Final residual = 0.02507208, No Iterations 15
DILUPBiCGStab:  Solving for ILambda_15_0, Initial residual = 0.2327584, Final residual = 0.01809106, No Iterations 25
Radiation solver iter: 1
DILUPBiCGStab:  Solving for ILambda_0_0, Initial residual = 0.04649715, Final residual = 7.628844e-17, No Iterations 1
DILUPBiCGStab:  Solving for ILambda_1_0, Initial residual = 0.06211201, Final residual = 1.147504e-16, No Iterations 1
DILUPBiCGStab:  Solving for ILambda_2_0, Initial residual = 0.0760266, Final residual = 1.265489e-16, No Iterations 1
DILUPBiCGStab:  Solving for ILambda_3_0, Initial residual = 0.0837488, Final residual = 1.7178e-16, No Iterations 1
DILUPBiCGStab:  Solving for ILambda_4_0, Initial residual = 0.09424069, Final residual = 0.006905875, No Iterations 3
DILUPBiCGStab:  Solving for ILambda_5_0, Initial residual = 0.09480311, Final residual = 0.008893727, No Iterations 7
DILUPBiCGStab:  Solving for ILambda_6_0, Initial residual = 0.0646501, Final residual = 0.002167609, No Iterations 11
DILUPBiCGStab:  Solving for ILambda_7_0, Initial residual = 0.05888439, Final residual = 0.005481853, No Iterations 11
DILUPBiCGStab:  Solving for ILambda_8_0, Initial residual = 0.03068285, Final residual = 1.108499e-16, No Iterations 1
DILUPBiCGStab:  Solving for ILambda_9_0, Initial residual = 0.03490084, Final residual = 8.857838e-17, No Iterations 1
DILUPBiCGStab:  Solving for ILambda_10_0, Initial residual = 0.03778373, Final residual = 1.059786e-16, No Iterations 1
DILUPBiCGStab:  Solving for ILambda_11_0, Initial residual = 0.04254026, Final residual = 1.55242e-16, No Iterations 1
DILUPBiCGStab:  Solving for ILambda_12_0, Initial residual = 0.04967232, Final residual = 0.003238231, No Iterations 4
DILUPBiCGStab:  Solving for ILambda_13_0, Initial residual = 0.04399588, Final residual = 0.004284858, No Iterations 9
DILUPBiCGStab:  Solving for ILambda_14_0, Initial residual = 0.05996889, Final residual = 0.005989555, No Iterations 12
DILUPBiCGStab:  Solving for ILambda_15_0, Initial residual = 0.05155941, Final residual = 0.002785049, No Iterations 26
Radiation solver iter: 2
DILUPBiCGStab:  Solving for ILambda_0_0, Initial residual = 0.03958547, Final residual = 5.785268e-17, No Iterations 1
DILUPBiCGStab:  Solving for ILambda_1_0, Initial residual = 0.04881645, Final residual = 5.865808e-17, No Iterations 1
DILUPBiCGStab:  Solving for ILambda_2_0, Initial residual = 0.05723575, Final residual = 5.127864e-17, No Iterations 1
DILUPBiCGStab:  Solving for ILambda_3_0, Initial residual = 0.04920623, Final residual = 6.417857e-17, No Iterations 1
DILUPBiCGStab:  Solving for ILambda_4_0, Initial residual = 0.0533303, Final residual = 0.002192772, No Iterations 3
DILUPBiCGStab:  Solving for ILambda_5_0, Initial residual = 0.06410013, Final residual = 0.001564554, No Iterations 7
DILUPBiCGStab:  Solving for ILambda_6_0, Initial residual = 0.0535155, Final residual = 0.004912778, No Iterations 5
DILUPBiCGStab:  Solving for ILambda_7_0, Initial residual = 0.04818887, Final residual = 0.003153076, No Iterations 9
DILUPBiCGStab:  Solving for ILambda_8_0, Initial residual = 0.01972137, Final residual = 2.167149e-17, No Iterations 1
DILUPBiCGStab:  Solving for ILambda_9_0, Initial residual = 0.02525662, Final residual = 3.301279e-17, No Iterations 1
DILUPBiCGStab:  Solving for ILambda_10_0, Initial residual = 0.02725867, Final residual = 4.658116e-17, No Iterations 1
DILUPBiCGStab:  Solving for ILambda_11_0, Initial residual = 0.02611917, Final residual = 6.923396e-17, No Iterations 1
DILUPBiCGStab:  Solving for ILambda_12_0, Initial residual = 0.0284663, Final residual = 0.001311874, No Iterations 4
DILUPBiCGStab:  Solving for ILambda_13_0, Initial residual = 0.03288777, Final residual = 0.003250901, No Iterations 7
DILUPBiCGStab:  Solving for ILambda_14_0, Initial residual = 0.03408228, Final residual = 0.002500556, No Iterations 10
DILUPBiCGStab:  Solving for ILambda_15_0, Initial residual = 0.0322353, Final residual = 0.00120458, No Iterations 14
Radiation solver iter: 3
DILUPBiCGStab:  Solving for ILambda_0_0, Initial residual = 0.03464977, Final residual = 5.196268e-17, No Iterations 1
DILUPBiCGStab:  Solving for ILambda_1_0, Initial residual = 0.03855173, Final residual = 3.448383e-17, No Iterations 1
DILUPBiCGStab:  Solving for ILambda_2_0, Initial residual = 0.04125871, Final residual = 3.596667e-17, No Iterations 1
DILUPBiCGStab:  Solving for ILambda_3_0, Initial residual = 0.02498657, Final residual = 2.303559e-17, No Iterations 1
DILUPBiCGStab:  Solving for ILambda_4_0, Initial residual = 0.02699277, Final residual = 0.001629696, No Iterations 2
DILUPBiCGStab:  Solving for ILambda_5_0, Initial residual = 0.04627276, Final residual = 0.004281304, No Iterations 5
DILUPBiCGStab:  Solving for ILambda_6_0, Initial residual = 0.04538745, Final residual = 0.003801643, No Iterations 4
DILUPBiCGStab:  Solving for ILambda_7_0, Initial residual = 0.03716486, Final residual = 0.003540425, No Iterations 4
DILUPBiCGStab:  Solving for ILambda_8_0, Initial residual = 0.01678885, Final residual = 1.414712e-17, No Iterations 1
DILUPBiCGStab:  Solving for ILambda_9_0, Initial residual = 0.0237582, Final residual = 2.779984e-17, No Iterations 1
DILUPBiCGStab:  Solving for ILambda_10_0, Initial residual = 0.02565885, Final residual = 3.452486e-17, No Iterations 1
DILUPBiCGStab:  Solving for ILambda_11_0, Initial residual = 0.01933155, Final residual = 4.189609e-17, No Iterations 1
DILUPBiCGStab:  Solving for ILambda_12_0, Initial residual = 0.02041551, Final residual = 0.001838036, No Iterations 3
DILUPBiCGStab:  Solving for ILambda_13_0, Initial residual = 0.0298861, Final residual = 0.0003113876, No Iterations 10
DILUPBiCGStab:  Solving for ILambda_14_0, Initial residual = 0.03004417, Final residual = 0.002926099, No Iterations 9
DILUPBiCGStab:  Solving for ILambda_15_0, Initial residual = 0.02701255, Final residual = 0.002672713, No Iterations 14
Radiation solver iter: 4
DILUPBiCGStab:  Solving for ILambda_0_0, Initial residual = 0.03113122, Final residual = 4.379315e-17, No Iterations 1
DILUPBiCGStab:  Solving for ILambda_1_0, Initial residual = 0.03219468, Final residual = 2.486369e-17, No Iterations 1
DILUPBiCGStab:  Solving for ILambda_2_0, Initial residual = 0.03085115, Final residual = 2.465149e-17, No Iterations 1
DILUPBiCGStab:  Solving for ILambda_3_0, Initial residual = 0.01139812, Final residual = 9.900215e-18, No Iterations 1
DILUPBiCGStab:  Solving for ILambda_4_0, Initial residual = 0.01207221, Final residual = 0.001050396, No Iterations 2
DILUPBiCGStab:  Solving for ILambda_5_0, Initial residual = 0.0348587, Final residual = 0.001882345, No Iterations 4
DILUPBiCGStab:  Solving for ILambda_6_0, Initial residual = 0.03913388, Final residual = 0.001249986, No Iterations 5
DILUPBiCGStab:  Solving for ILambda_7_0, Initial residual = 0.03025807, Final residual = 0.00270932, No Iterations 4
DILUPBiCGStab:  Solving for ILambda_8_0, Initial residual = 0.01471761, Final residual = 1.284663e-17, No Iterations 1
DILUPBiCGStab:  Solving for ILambda_9_0, Initial residual = 0.02243377, Final residual = 1.980169e-17, No Iterations 1
DILUPBiCGStab:  Solving for ILambda_10_0, Initial residual = 0.02290415, Final residual = 2.671677e-17, No Iterations 1
DILUPBiCGStab:  Solving for ILambda_11_0, Initial residual = 0.01385514, Final residual = 2.754677e-17, No Iterations 1
DILUPBiCGStab:  Solving for ILambda_12_0, Initial residual = 0.01484849, Final residual = 0.001156, No Iterations 3
DILUPBiCGStab:  Solving for ILambda_13_0, Initial residual = 0.02535014, Final residual = 0.001033091, No Iterations 9
DILUPBiCGStab:  Solving for ILambda_14_0, Initial residual = 0.02789445, Final residual = 0.002502645, No Iterations 10
DILUPBiCGStab:  Solving for ILambda_15_0, Initial residual = 0.0250341, Final residual = 0.001215608, No Iterations 11
Radiation solver iter: 5
DILUPBiCGStab:  Solving for ILambda_0_0, Initial residual = 0.02775479, Final residual = 3.545909e-17, No Iterations 1
DILUPBiCGStab:  Solving for ILambda_1_0, Initial residual = 0.0270296, Final residual = 1.752935e-17, No Iterations 1
DILUPBiCGStab:  Solving for ILambda_2_0, Initial residual = 0.02277536, Final residual = 1.722915e-17, No Iterations 1
DILUPBiCGStab:  Solving for ILambda_3_0, Initial residual = 0.00485454, Final residual = 3.049934e-18, No Iterations 1
DILUPBiCGStab:  Solving for ILambda_4_0, Initial residual = 0.005242986, Final residual = 0.0003626134, No Iterations 2
DILUPBiCGStab:  Solving for ILambda_5_0, Initial residual = 0.02582435, Final residual = 0.001214515, No Iterations 4
DILUPBiCGStab:  Solving for ILambda_6_0, Initial residual = 0.03276745, Final residual = 0.001549101, No Iterations 4
DILUPBiCGStab:  Solving for ILambda_7_0, Initial residual = 0.02532524, Final residual = 0.002257766, No Iterations 4
DILUPBiCGStab:  Solving for ILambda_8_0, Initial residual = 0.01326707, Final residual = 9.714927e-18, No Iterations 1
DILUPBiCGStab:  Solving for ILambda_9_0, Initial residual = 0.02075093, Final residual = 1.82489e-17, No Iterations 1
DILUPBiCGStab:  Solving for ILambda_10_0, Initial residual = 0.01956621, Final residual = 2.192627e-17, No Iterations 1
DILUPBiCGStab:  Solving for ILambda_11_0, Initial residual = 0.01118376, Final residual = 2.555278e-17, No Iterations 1
DILUPBiCGStab:  Solving for ILambda_12_0, Initial residual = 0.01194154, Final residual = 0.0009384002, No Iterations 3
DILUPBiCGStab:  Solving for ILambda_13_0, Initial residual = 0.02149203, Final residual = 0.002091724, No Iterations 6
DILUPBiCGStab:  Solving for ILambda_14_0, Initial residual = 0.0248072, Final residual = 0.002025024, No Iterations 8
DILUPBiCGStab:  Solving for ILambda_15_0, Initial residual = 0.02195033, Final residual = 0.0009967092, No Iterations 9
Radiation solver iter: 6
DILUPBiCGStab:  Solving for ILambda_0_0, Initial residual = 0.02445867, Final residual = 2.941273e-17, No Iterations 1
DILUPBiCGStab:  Solving for ILambda_1_0, Initial residual = 0.022238, Final residual = 1.303977e-17, No Iterations 1
DILUPBiCGStab:  Solving for ILambda_2_0, Initial residual = 0.01610185, Final residual = 9.875805e-18, No Iterations 1
DILUPBiCGStab:  Solving for ILambda_3_0, Initial residual = 0.001936183, Final residual = 1.171359e-18, No Iterations 1
DILUPBiCGStab:  Solving for ILambda_4_0, Initial residual = 0.002033293, Final residual = 0.0001270362, No Iterations 2
DILUPBiCGStab:  Solving for ILambda_5_0, Initial residual = 0.01799966, Final residual = 0.001135287, No Iterations 3
DILUPBiCGStab:  Solving for ILambda_6_0, Initial residual = 0.02700858, Final residual = 0.0018358, No Iterations 3
DILUPBiCGStab:  Solving for ILambda_7_0, Initial residual = 0.02143026, Final residual = 0.001350179, No Iterations 4
DILUPBiCGStab:  Solving for ILambda_8_0, Initial residual = 0.01193166, Final residual = 8.800957e-18, No Iterations 1
DILUPBiCGStab:  Solving for ILambda_9_0, Initial residual = 0.01882408, Final residual = 1.612953e-17, No Iterations 1
DILUPBiCGStab:  Solving for ILambda_10_0, Initial residual = 0.01627451, Final residual = 1.767185e-17, No Iterations 1
DILUPBiCGStab:  Solving for ILambda_11_0, Initial residual = 0.009680283, Final residual = 2.339761e-17, No Iterations 1
DILUPBiCGStab:  Solving for ILambda_12_0, Initial residual = 0.01012392, Final residual = 9.428517e-05, No Iterations 5
DILUPBiCGStab:  Solving for ILambda_13_0, Initial residual = 0.01797865, Final residual = 0.001747209, No Iterations 5
DILUPBiCGStab:  Solving for ILambda_14_0, Initial residual = 0.02190111, Final residual = 0.002032118, No Iterations 4
DILUPBiCGStab:  Solving for ILambda_15_0, Initial residual = 0.01960572, Final residual = 0.001649388, No Iterations 6
Radiation solver iter: 7
DILUPBiCGStab:  Solving for ILambda_0_0, Initial residual = 0.02122281, Final residual = 2.323394e-17, No Iterations 1
DILUPBiCGStab:  Solving for ILambda_1_0, Initial residual = 0.01797354, Final residual = 9.528316e-18, No Iterations 1
DILUPBiCGStab:  Solving for ILambda_2_0, Initial residual = 0.01072363, Final residual = 8.091384e-18, No Iterations 1
DILUPBiCGStab:  Solving for ILambda_3_0, Initial residual = 0.0007039065, Final residual = 5.810592e-19, No Iterations 1
DILUPBiCGStab:  Solving for ILambda_4_0, Initial residual = 0.0007530103, Final residual = 5.40263e-05, No Iterations 2
DILUPBiCGStab:  Solving for ILambda_5_0, Initial residual = 0.01192225, Final residual = 0.001002627, No Iterations 3
DILUPBiCGStab:  Solving for ILambda_6_0, Initial residual = 0.02215817, Final residual = 0.001656642, No Iterations 2
DILUPBiCGStab:  Solving for ILambda_7_0, Initial residual = 0.01809496, Final residual = 0.001180889, No Iterations 4
DILUPBiCGStab:  Solving for ILambda_8_0, Initial residual = 0.0106038, Final residual = 7.756584e-18, No Iterations 1
DILUPBiCGStab:  Solving for ILambda_9_0, Initial residual = 0.01686194, Final residual = 1.481754e-17, No Iterations 1
DILUPBiCGStab:  Solving for ILambda_10_0, Initial residual = 0.01341838, Final residual = 1.534302e-17, No Iterations 1
DILUPBiCGStab:  Solving for ILambda_11_0, Initial residual = 0.007973442, Final residual = 1.775701e-17, No Iterations 1
DILUPBiCGStab:  Solving for ILambda_12_0, Initial residual = 0.008263171, Final residual = 0.0004008247, No Iterations 4
DILUPBiCGStab:  Solving for ILambda_13_0, Initial residual = 0.01489871, Final residual = 0.001242729, No Iterations 6
DILUPBiCGStab:  Solving for ILambda_14_0, Initial residual = 0.0194534, Final residual = 0.001200476, No Iterations 6
DILUPBiCGStab:  Solving for ILambda_15_0, Initial residual = 0.01732929, Final residual = 0.0009113005, No Iterations 7
Radiation solver iter: 8
DILUPBiCGStab:  Solving for ILambda_0_0, Initial residual = 0.0180968, Final residual = 2.099767e-17, No Iterations 1
DILUPBiCGStab:  Solving for ILambda_1_0, Initial residual = 0.01443136, Final residual = 7.712648e-18, No Iterations 1
DILUPBiCGStab:  Solving for ILambda_2_0, Initial residual = 0.006756531, Final residual = 3.07712e-18, No Iterations 1
DILUPBiCGStab:  Solving for ILambda_5_0, Initial residual = 0.007380016, Final residual = 0.0004272907, No Iterations 3
DILUPBiCGStab:  Solving for ILambda_6_0, Initial residual = 0.01807694, Final residual = 0.001296798, No Iterations 2
DILUPBiCGStab:  Solving for ILambda_7_0, Initial residual = 0.01521953, Final residual = 0.0007821973, No Iterations 4
DILUPBiCGStab:  Solving for ILambda_8_0, Initial residual = 0.009222713, Final residual = 6.42515e-18, No Iterations 1
DILUPBiCGStab:  Solving for ILambda_9_0, Initial residual = 0.01486894, Final residual = 1.16192e-17, No Iterations 1
DILUPBiCGStab:  Solving for ILambda_10_0, Initial residual = 0.01097012, Final residual = 1.184284e-17, No Iterations 1
DILUPBiCGStab:  Solving for ILambda_11_0, Initial residual = 0.006097457, Final residual = 1.383823e-17, No Iterations 1
DILUPBiCGStab:  Solving for ILambda_12_0, Initial residual = 0.006456442, Final residual = 0.0002646464, No Iterations 4
DILUPBiCGStab:  Solving for ILambda_13_0, Initial residual = 0.01232477, Final residual = 0.001143629, No Iterations 5
DILUPBiCGStab:  Solving for ILambda_14_0, Initial residual = 0.01728742, Final residual = 0.001394255, No Iterations 6
DILUPBiCGStab:  Solving for ILambda_15_0, Initial residual = 0.0148597, Final residual = 0.001342448, No Iterations 6
Radiation solver iter: 9
DILUPBiCGStab:  Solving for ILambda_0_0, Initial residual = 0.01519531, Final residual = 1.507884e-17, No Iterations 1
DILUPBiCGStab:  Solving for ILambda_1_0, Initial residual = 0.01160389, Final residual = 6.159103e-18, No Iterations 1
DILUPBiCGStab:  Solving for ILambda_2_0, Initial residual = 0.004090524, Final residual = 1.943434e-18, No Iterations 1
DILUPBiCGStab:  Solving for ILambda_5_0, Initial residual = 0.004379156, Final residual = 0.000407587, No Iterations 2
DILUPBiCGStab:  Solving for ILambda_6_0, Initial residual = 0.01457109, Final residual = 0.001224337, No Iterations 2
DILUPBiCGStab:  Solving for ILambda_7_0, Initial residual = 0.01260061, Final residual = 0.001039948, No Iterations 3
DILUPBiCGStab:  Solving for ILambda_8_0, Initial residual = 0.007926528, Final residual = 5.278098e-18, No Iterations 1
DILUPBiCGStab:  Solving for ILambda_9_0, Initial residual = 0.01297507, Final residual = 1.081663e-17, No Iterations 1
DILUPBiCGStab:  Solving for ILambda_10_0, Initial residual = 0.008936038, Final residual = 1.089258e-17, No Iterations 1
DILUPBiCGStab:  Solving for ILambda_11_0, Initial residual = 0.004488252, Final residual = 9.9365e-18, No Iterations 1
DILUPBiCGStab:  Solving for ILambda_12_0, Initial residual = 0.004745203, Final residual = 0.0002112495, No Iterations 4
DILUPBiCGStab:  Solving for ILambda_13_0, Initial residual = 0.01018552, Final residual = 0.001018116, No Iterations 5
DILUPBiCGStab:  Solving for ILambda_14_0, Initial residual = 0.01529936, Final residual = 0.001411462, No Iterations 4
DILUPBiCGStab:  Solving for ILambda_15_0, Initial residual = 0.01281463, Final residual = 0.000894116, No Iterations 7
Radiation solver iter: 10
DILUPBiCGStab:  Solving for ILambda_0_0, Initial residual = 0.01261534, Final residual = 1.265491e-17, No Iterations 1
DILUPBiCGStab:  Solving for ILambda_1_0, Initial residual = 0.00935889, Final residual = 4.661168e-18, No Iterations 1
DILUPBiCGStab:  Solving for ILambda_2_0, Initial residual = 0.002398485, Final residual = 1.07529e-18, No Iterations 1
DILUPBiCGStab:  Solving for ILambda_5_0, Initial residual = 0.002499599, Final residual = 0.0002197194, No Iterations 2
DILUPBiCGStab:  Solving for ILambda_6_0, Initial residual = 0.01164505, Final residual = 0.0007505179, No Iterations 3
DILUPBiCGStab:  Solving for ILambda_7_0, Initial residual = 0.01048231, Final residual = 0.0003404632, No Iterations 4
DILUPBiCGStab:  Solving for ILambda_8_0, Initial residual = 0.006828444, Final residual = 4.713609e-18, No Iterations 1
DILUPBiCGStab:  Solving for ILambda_9_0, Initial residual = 0.01122824, Final residual = 8.095368e-18, No Iterations 1
DILUPBiCGStab:  Solving for ILambda_10_0, Initial residual = 0.007276208, Final residual = 7.998304e-18, No Iterations 1
DILUPBiCGStab:  Solving for ILambda_11_0, Initial residual = 0.003326759, Final residual = 7.129817e-18, No Iterations 1
DILUPBiCGStab:  Solving for ILambda_12_0, Initial residual = 0.003529775, Final residual = 0.0001275131, No Iterations 4
DILUPBiCGStab:  Solving for ILambda_13_0, Initial residual = 0.008339732, Final residual = 0.0007693505, No Iterations 4
DILUPBiCGStab:  Solving for ILambda_14_0, Initial residual = 0.01345091, Final residual = 0.001146577, No Iterations 7
DILUPBiCGStab:  Solving for ILambda_15_0, Initial residual = 0.01078665, Final residual = 0.0008319534, No Iterations 5
Radiation solver iter: 11
DILUPBiCGStab:  Solving for ILambda_0_0, Initial residual = 0.01039144, Final residual = 9.097814e-18, No Iterations 1
DILUPBiCGStab:  Solving for ILambda_1_0, Initial residual = 0.007516371, Final residual = 3.791166e-18, No Iterations 1
DILUPBiCGStab:  Solving for ILambda_2_0, Initial residual = 0.001368022, Final residual = 4.936124e-19, No Iterations 1
DILUPBiCGStab:  Solving for ILambda_5_0, Initial residual = 0.001388501, Final residual = 0.0001090195, No Iterations 2
DILUPBiCGStab:  Solving for ILambda_6_0, Initial residual = 0.009142543, Final residual = 0.0008641505, No Iterations 2
DILUPBiCGStab:  Solving for ILambda_7_0, Initial residual = 0.008516897, Final residual = 0.0006432349, No Iterations 2
DILUPBiCGStab:  Solving for ILambda_8_0, Initial residual = 0.0059136, Final residual = 3.92997e-18, No Iterations 1
DILUPBiCGStab:  Solving for ILambda_9_0, Initial residual = 0.009570754, Final residual = 7.555625e-18, No Iterations 1
DILUPBiCGStab:  Solving for ILambda_10_0, Initial residual = 0.005879088, Final residual = 6.058088e-18, No Iterations 1
DILUPBiCGStab:  Solving for ILambda_11_0, Initial residual = 0.002503413, Final residual = 5.479337e-18, No Iterations 1
DILUPBiCGStab:  Solving for ILambda_12_0, Initial residual = 0.002625943, Final residual = 8.510495e-05, No Iterations 4
DILUPBiCGStab:  Solving for ILambda_13_0, Initial residual = 0.006677987, Final residual = 0.0006167456, No Iterations 5
DILUPBiCGStab:  Solving for ILambda_14_0, Initial residual = 0.01145715, Final residual = 0.0008864506, No Iterations 5
DILUPBiCGStab:  Solving for ILambda_15_0, Initial residual = 0.009250132, Final residual = 0.000629488, No Iterations 5
Radiation solver iter: 12
DILUPBiCGStab:  Solving for ILambda_0_0, Initial residual = 0.008489385, Final residual = 7.125144e-18, No Iterations 1
DILUPBiCGStab:  Solving for ILambda_1_0, Initial residual = 0.005950452, Final residual = 3.172782e-18, No Iterations 1
DILUPBiCGStab:  Solving for ILambda_2_0, Initial residual = 0.0007584616, Final residual = 2.632897e-19, No Iterations 1
DILUPBiCGStab:  Solving for ILambda_5_0, Initial residual = 0.0007581566, Final residual = 6.130629e-05, No Iterations 2
DILUPBiCGStab:  Solving for ILambda_6_0, Initial residual = 0.007079021, Final residual = 0.0005180535, No Iterations 2
DILUPBiCGStab:  Solving for ILambda_7_0, Initial residual = 0.00704718, Final residual = 0.0005681857, No Iterations 2
DILUPBiCGStab:  Solving for ILambda_8_0, Initial residual = 0.005121891, Final residual = 2.981994e-18, No Iterations 1
DILUPBiCGStab:  Solving for ILambda_9_0, Initial residual = 0.008071541, Final residual = 6.106806e-18, No Iterations 1
DILUPBiCGStab:  Solving for ILambda_10_0, Initial residual = 0.004682472, Final residual = 4.734183e-18, No Iterations 1
DILUPBiCGStab:  Solving for ILambda_11_0, Initial residual = 0.001940018, Final residual = 4.331358e-18, No Iterations 1
DILUPBiCGStab:  Solving for ILambda_12_0, Initial residual = 0.00202372, Final residual = 6.526899e-05, No Iterations 4
DILUPBiCGStab:  Solving for ILambda_13_0, Initial residual = 0.005258787, Final residual = 0.0005129521, No Iterations 4
DILUPBiCGStab:  Solving for ILambda_14_0, Initial residual = 0.009570998, Final residual = 0.000515851, No Iterations 5
DILUPBiCGStab:  Solving for ILambda_15_0, Initial residual = 0.007937807, Final residual = 0.0003630955, No Iterations 5
Radiation solver iter: 13
DILUPBiCGStab:  Solving for ILambda_0_0, Initial residual = 0.00689553, Final residual = 5.603307e-18, No Iterations 1
DILUPBiCGStab:  Solving for ILambda_1_0, Initial residual = 0.004623307, Final residual = 2.161852e-18, No Iterations 1
DILUPBiCGStab:  Solving for ILambda_6_0, Initial residual = 0.005293976, Final residual = 0.0005071442, No Iterations 2
DILUPBiCGStab:  Solving for ILambda_7_0, Initial residual = 0.005848232, Final residual = 0.0005703872, No Iterations 2
DILUPBiCGStab:  Solving for ILambda_8_0, Initial residual = 0.00444937, Final residual = 2.879623e-18, No Iterations 1
DILUPBiCGStab:  Solving for ILambda_9_0, Initial residual = 0.006730883, Final residual = 3.982795e-18, No Iterations 1
DILUPBiCGStab:  Solving for ILambda_10_0, Initial residual = 0.003687729, Final residual = 3.612272e-18, No Iterations 1
DILUPBiCGStab:  Solving for ILambda_11_0, Initial residual = 0.00156193, Final residual = 3.305256e-18, No Iterations 1
DILUPBiCGStab:  Solving for ILambda_12_0, Initial residual = 0.001634986, Final residual = 5.194055e-05, No Iterations 4
DILUPBiCGStab:  Solving for ILambda_13_0, Initial residual = 0.004102389, Final residual = 0.0003429576, No Iterations 4
DILUPBiCGStab:  Solving for ILambda_14_0, Initial residual = 0.007961167, Final residual = 0.0006759146, No Iterations 3
DILUPBiCGStab:  Solving for ILambda_15_0, Initial residual = 0.006795253, Final residual = 0.0006345581, No Iterations 3
Radiation solver iter: 14
DILUPBiCGStab:  Solving for ILambda_0_0, Initial residual = 0.005589853, Final residual = 3.878656e-18, No Iterations 1
DILUPBiCGStab:  Solving for ILambda_1_0, Initial residual = 0.003506322, Final residual = 1.444592e-18, No Iterations 1
DILUPBiCGStab:  Solving for ILambda_6_0, Initial residual = 0.003885887, Final residual = 0.0002924765, No Iterations 2
DILUPBiCGStab:  Solving for ILambda_7_0, Initial residual = 0.00486289, Final residual = 0.0003395547, No Iterations 3
DILUPBiCGStab:  Solving for ILambda_8_0, Initial residual = 0.003841823, Final residual = 2.152992e-18, No Iterations 1
DILUPBiCGStab:  Solving for ILambda_9_0, Initial residual = 0.00556874, Final residual = 3.528922e-18, No Iterations 1
DILUPBiCGStab:  Solving for ILambda_10_0, Initial residual = 0.002887805, Final residual = 2.586873e-18, No Iterations 1
DILUPBiCGStab:  Solving for ILambda_11_0, Initial residual = 0.00130394, Final residual = 2.800293e-18, No Iterations 1
DILUPBiCGStab:  Solving for ILambda_12_0, Initial residual = 0.001374116, Final residual = 4.568533e-05, No Iterations 4
DILUPBiCGStab:  Solving for ILambda_13_0, Initial residual = 0.003202266, Final residual = 0.0002943153, No Iterations 5
DILUPBiCGStab:  Solving for ILambda_14_0, Initial residual = 0.006615707, Final residual = 0.0005685352, No Iterations 3
DILUPBiCGStab:  Solving for ILambda_15_0, Initial residual = 0.005854288, Final residual = 0.000369783, No Iterations 4
GAMG:  Solving for p_rgh, Initial residual = 0.03797279, Final residual = 6.437447e-05, No Iterations 2
limitVelocity limitU Limited 0 (0%) of cells, with max limit 5
time step continuity errors : sum local = 0.0003526442, global = 2.065425e-17, cumulative = 2.989889e-15
rho min/max : 0.5200855 0.9446599
DILUPBiCGStab:  Solving for omega, Initial residual = 0.0002212817, Final residual = 7.815446e-06, No Iterations 1
DILUPBiCGStab:  Solving for k, Initial residual = 0.0003163881, Final residual = 1.487788e-05, No Iterations 1
ExecutionTime = 0.6 s  ClockTime = 0 s

Time = 4802

DILUPBiCGStab:  Solving for h, Initial residual = 8.271605e-05, Final residual = 2.45934e-09, No Iterations 1
limitTemperature limitT Lower limited 0 (0%) of cells, with min limit 280
limitTemperature limitT Upper limited 0 (0%) of cells, with max limit 1200
limitTemperature limitT Unlimited Tmin 418.0235
limitTemperature limitT Unlimited Tmax 504.3243
GAMG:  Solving for p_rgh, Initial residual = 0.03014151, Final residual = 5.348009e-05, No Iterations 2
limitVelocity limitU Limited 0 (0%) of cells, with max limit 5
time step continuity errors : sum local = 0.0003240403, global = -5.690995e-17, cumulative = 2.932979e-15
rho min/max : 0.5547396 0.9437948
DILUPBiCGStab:  Solving for omega, Initial residual = 0.0002104065, Final residual = 7.264306e-06, No Iterations 1
DILUPBiCGStab:  Solving for k, Initial residual = 0.0002910026, Final residual = 1.592608e-05, No Iterations 1
ExecutionTime = 0.61 s  ClockTime = 0 s

Time = 4803

DILUPBiCGStab:  Solving for h, Initial residual = 7.902581e-05, Final residual = 2.557713e-09, No Iterations 1
limitTemperature limitT Lower limited 0 (0%) of cells, with min limit 280
limitTemperature limitT Upper limited 0 (0%) of cells, with max limit 1200
limitTemperature limitT Unlimited Tmin 418.0259
limitTemperature limitT Unlimited Tmax 504.4201
Radiation solver iter: 0
DILUPBiCGStab:  Solving for ILambda_0_0, Initial residual = 0.1407264, Final residual = 8.367544e-16, No Iterations 1
DILUPBiCGStab:  Solving for ILambda_1_0, Initial residual = 0.2655861, Final residual = 1.407229e-15, No Iterations 1
DILUPBiCGStab:  Solving for ILambda_2_0, Initial residual = 0.4058566, Final residual = 1.916438e-15, No Iterations 1
DILUPBiCGStab:  Solving for ILambda_3_0, Initial residual = 0.6144369, Final residual = 3.058359e-15, No Iterations 1
DILUPBiCGStab:  Solving for ILambda_4_0, Initial residual = 0.6256765, Final residual = 0.03456026, No Iterations 4
DILUPBiCGStab:  Solving for ILambda_5_0, Initial residual = 0.425673, Final residual = 0.008982472, No Iterations 11
DILUPBiCGStab:  Solving for ILambda_6_0, Initial residual = 0.2905241, Final residual = 0.01169347, No Iterations 18
DILUPBiCGStab:  Solving for ILambda_7_0, Initial residual = 0.1877146, Final residual = 0.01120674, No Iterations 28
DILUPBiCGStab:  Solving for ILambda_8_0, Initial residual = 0.1609964, Final residual = 1.545472e-15, No Iterations 1
DILUPBiCGStab:  Solving for ILambda_9_0, Initial residual = 0.2565709, Final residual = 1.786077e-15, No Iterations 1
DILUPBiCGStab:  Solving for ILambda_10_0, Initial residual = 0.3513443, Final residual = 2.048172e-15, No Iterations 1
DILUPBiCGStab:  Solving for ILambda_11_0, Initial residual = 0.4661096, Final residual = 2.383236e-15, No Iterations 1
DILUPBiCGStab:  Solving for ILambda_12_0, Initial residual = 0.5008271, Final residual = 0.01551326, No Iterations 4
DILUPBiCGStab:  Solving for ILambda_13_0, Initial residual = 0.4106991, Final residual = 0.02931441, No Iterations 10
DILUPBiCGStab:  Solving for ILambda_14_0, Initial residual = 0.3249974, Final residual = 0.03039725, No Iterations 13
DILUPBiCGStab:  Solving for ILambda_15_0, Initial residual = 0.2458833, Final residual = 0.0008057531, No Iterations 30
Radiation solver iter: 1
DILUPBiCGStab:  Solving for ILambda_0_0, Initial residual = 0.09864832, Final residual = 1.723719e-16, No Iterations 1
DILUPBiCGStab:  Solving for ILambda_1_0, Initial residual = 0.1535201, Final residual = 2.8894e-16, No Iterations 1
DILUPBiCGStab:  Solving for ILambda_2_0, Initial residual = 0.1930098, Final residual = 3.207165e-16, No Iterations 1
DILUPBiCGStab:  Solving for ILambda_3_0, Initial residual = 0.2026533, Final residual = 3.922758e-16, No Iterations 1
DILUPBiCGStab:  Solving for ILambda_4_0, Initial residual = 0.2264893, Final residual = 0.02072605, No Iterations 3
DILUPBiCGStab:  Solving for ILambda_5_0, Initial residual = 0.2015768, Final residual = 0.006613209, No Iterations 8
DILUPBiCGStab:  Solving for ILambda_6_0, Initial residual = 0.1627264, Final residual = 0.01496063, No Iterations 8
DILUPBiCGStab:  Solving for ILambda_7_0, Initial residual = 0.1279237, Final residual = 0.009773579, No Iterations 11
DILUPBiCGStab:  Solving for ILambda_8_0, Initial residual = 0.03014199, Final residual = 8.824488e-17, No Iterations 1
DILUPBiCGStab:  Solving for ILambda_9_0, Initial residual = 0.04564687, Final residual = 1.015388e-16, No Iterations 1
DILUPBiCGStab:  Solving for ILambda_10_0, Initial residual = 0.05854987, Final residual = 1.331513e-16, No Iterations 1
DILUPBiCGStab:  Solving for ILambda_11_0, Initial residual = 0.07209209, Final residual = 2.267883e-16, No Iterations 1
DILUPBiCGStab:  Solving for ILambda_12_0, Initial residual = 0.1023663, Final residual = 0.00643308, No Iterations 4
DILUPBiCGStab:  Solving for ILambda_13_0, Initial residual = 0.1173532, Final residual = 0.004359692, No Iterations 9
DILUPBiCGStab:  Solving for ILambda_14_0, Initial residual = 0.1037969, Final residual = 0.00903098, No Iterations 15
DILUPBiCGStab:  Solving for ILambda_15_0, Initial residual = 0.06518324, Final residual = 0.001532839, No Iterations 27
Radiation solver iter: 2
DILUPBiCGStab:  Solving for ILambda_0_0, Initial residual = 0.08849917, Final residual = 1.46555e-16, No Iterations 1
DILUPBiCGStab:  Solving for ILambda_1_0, Initial residual = 0.1259687, Final residual = 1.343671e-16, No Iterations 1
DILUPBiCGStab:  Solving for ILambda_2_0, Initial residual = 0.1502624, Final residual = 1.467413e-16, No Iterations 1
DILUPBiCGStab:  Solving for ILambda_3_0, Initial residual = 0.1194413, Final residual = 1.382488e-16, No Iterations 1
DILUPBiCGStab:  Solving for ILambda_4_0, Initial residual = 0.1214274, Final residual = 0.008116599, No Iterations 3
DILUPBiCGStab:  Solving for ILambda_5_0, Initial residual = 0.1544151, Final residual = 0.01201199, No Iterations 4
DILUPBiCGStab:  Solving for ILambda_6_0, Initial residual = 0.1295778, Final residual = 0.005003524, No Iterations 8
DILUPBiCGStab:  Solving for ILambda_7_0, Initial residual = 0.09111708, Final residual = 0.005884874, No Iterations 9
DILUPBiCGStab:  Solving for ILambda_8_0, Initial residual = 0.02303219, Final residual = 2.661668e-17, No Iterations 1
DILUPBiCGStab:  Solving for ILambda_9_0, Initial residual = 0.0399324, Final residual = 5.079913e-17, No Iterations 1
DILUPBiCGStab:  Solving for ILambda_10_0, Initial residual = 0.05283244, Final residual = 7.946876e-17, No Iterations 1
DILUPBiCGStab:  Solving for ILambda_11_0, Initial residual = 0.05626111, Final residual = 1.416311e-16, No Iterations 1
DILUPBiCGStab:  Solving for ILambda_12_0, Initial residual = 0.0642547, Final residual = 0.002273839, No Iterations 4
DILUPBiCGStab:  Solving for ILambda_13_0, Initial residual = 0.0744128, Final residual = 0.006884875, No Iterations 7
DILUPBiCGStab:  Solving for ILambda_14_0, Initial residual = 0.07030434, Final residual = 0.00632272, No Iterations 11
DILUPBiCGStab:  Solving for ILambda_15_0, Initial residual = 0.05968848, Final residual = 0.005481459, No Iterations 16
Radiation solver iter: 3
DILUPBiCGStab:  Solving for ILambda_0_0, Initial residual = 0.07993124, Final residual = 1.250578e-16, No Iterations 1
DILUPBiCGStab:  Solving for ILambda_1_0, Initial residual = 0.1013104, Final residual = 9.291674e-17, No Iterations 1
DILUPBiCGStab:  Solving for ILambda_2_0, Initial residual = 0.1062063, Final residual = 8.810515e-17, No Iterations 1
DILUPBiCGStab:  Solving for ILambda_3_0, Initial residual = 0.0569094, Final residual = 5.079765e-17, No Iterations 1
DILUPBiCGStab:  Solving for ILambda_4_0, Initial residual = 0.05529902, Final residual = 0.003117179, No Iterations 2
DILUPBiCGStab:  Solving for ILambda_5_0, Initial residual = 0.1138159, Final residual = 0.01059949, No Iterations 4
DILUPBiCGStab:  Solving for ILambda_6_0, Initial residual = 0.100453, Final residual = 0.009826165, No Iterations 4
DILUPBiCGStab:  Solving for ILambda_7_0, Initial residual = 0.06696545, Final residual = 0.005919812, No Iterations 4
DILUPBiCGStab:  Solving for ILambda_8_0, Initial residual = 0.01956593, Final residual = 1.917115e-17, No Iterations 1
DILUPBiCGStab:  Solving for ILambda_9_0, Initial residual = 0.03741547, Final residual = 3.623624e-17, No Iterations 1
DILUPBiCGStab:  Solving for ILambda_10_0, Initial residual = 0.04765419, Final residual = 5.693833e-17, No Iterations 1
DILUPBiCGStab:  Solving for ILambda_11_0, Initial residual = 0.03864383, Final residual = 7.814092e-17, No Iterations 1
DILUPBiCGStab:  Solving for ILambda_12_0, Initial residual = 0.0440597, Final residual = 0.002715069, No Iterations 3
DILUPBiCGStab:  Solving for ILambda_13_0, Initial residual = 0.06923333, Final residual = 0.006835713, No Iterations 6
DILUPBiCGStab:  Solving for ILambda_14_0, Initial residual = 0.06268573, Final residual = 0.002484557, No Iterations 13
DILUPBiCGStab:  Solving for ILambda_15_0, Initial residual = 0.0545886, Final residual = 0.003521308, No Iterations 10
Radiation solver iter: 4
DILUPBiCGStab:  Solving for ILambda_0_0, Initial residual = 0.07222853, Final residual = 1.054847e-16, No Iterations 1
DILUPBiCGStab:  Solving for ILambda_1_0, Initial residual = 0.08377269, Final residual = 6.236773e-17, No Iterations 1
DILUPBiCGStab:  Solving for ILambda_2_0, Initial residual = 0.07555185, Final residual = 5.855111e-17, No Iterations 1
DILUPBiCGStab:  Solving for ILambda_3_0, Initial residual = 0.02472021, Final residual = 2.153457e-17, No Iterations 1
DILUPBiCGStab:  Solving for ILambda_4_0, Initial residual = 0.02356716, Final residual = 0.002090807, No Iterations 2
DILUPBiCGStab:  Solving for ILambda_5_0, Initial residual = 0.0829599, Final residual = 0.006519491, No Iterations 5
DILUPBiCGStab:  Solving for ILambda_6_0, Initial residual = 0.08450575, Final residual = 0.005947466, No Iterations 3
DILUPBiCGStab:  Solving for ILambda_7_0, Initial residual = 0.04944607, Final residual = 0.004340188, No Iterations 3
DILUPBiCGStab:  Solving for ILambda_8_0, Initial residual = 0.01730196, Final residual = 1.515378e-17, No Iterations 1
DILUPBiCGStab:  Solving for ILambda_9_0, Initial residual = 0.03607522, Final residual = 2.852856e-17, No Iterations 1
DILUPBiCGStab:  Solving for ILambda_10_0, Initial residual = 0.04211858, Final residual = 4.411752e-17, No Iterations 1
DILUPBiCGStab:  Solving for ILambda_11_0, Initial residual = 0.02796747, Final residual = 5.356775e-17, No Iterations 1
DILUPBiCGStab:  Solving for ILambda_12_0, Initial residual = 0.03260392, Final residual = 0.002523768, No Iterations 3
DILUPBiCGStab:  Solving for ILambda_13_0, Initial residual = 0.05877697, Final residual = 0.005602857, No Iterations 6
DILUPBiCGStab:  Solving for ILambda_14_0, Initial residual = 0.05832447, Final residual = 0.002751694, No Iterations 10
DILUPBiCGStab:  Solving for ILambda_15_0, Initial residual = 0.04844228, Final residual = 0.004644576, No Iterations 10
Radiation solver iter: 5
DILUPBiCGStab:  Solving for ILambda_0_0, Initial residual = 0.06384803, Final residual = 8.236608e-17, No Iterations 1
DILUPBiCGStab:  Solving for ILambda_1_0, Initial residual = 0.06860029, Final residual = 5.010124e-17, No Iterations 1
DILUPBiCGStab:  Solving for ILambda_2_0, Initial residual = 0.05322864, Final residual = 3.63652e-17, No Iterations 1
DILUPBiCGStab:  Solving for ILambda_3_0, Initial residual = 0.01037854, Final residual = 8.326751e-18, No Iterations 1
DILUPBiCGStab:  Solving for ILambda_4_0, Initial residual = 0.01018236, Final residual = 0.0007040229, No Iterations 2
DILUPBiCGStab:  Solving for ILambda_5_0, Initial residual = 0.05591162, Final residual = 0.004614807, No Iterations 3
DILUPBiCGStab:  Solving for ILambda_6_0, Initial residual = 0.06955667, Final residual = 0.005603023, No Iterations 3
DILUPBiCGStab:  Solving for ILambda_7_0, Initial residual = 0.03826554, Final residual = 0.002778291, No Iterations 3
DILUPBiCGStab:  Solving for ILambda_8_0, Initial residual = 0.01577621, Final residual = 1.518564e-17, No Iterations 1
DILUPBiCGStab:  Solving for ILambda_9_0, Initial residual = 0.03306849, Final residual = 2.696067e-17, No Iterations 1
DILUPBiCGStab:  Solving for ILambda_10_0, Initial residual = 0.03495023, Final residual = 3.74145e-17, No Iterations 1
DILUPBiCGStab:  Solving for ILambda_11_0, Initial residual = 0.02232276, Final residual = 5.144193e-17, No Iterations 1
DILUPBiCGStab:  Solving for ILambda_12_0, Initial residual = 0.02708328, Final residual = 0.001942602, No Iterations 3
DILUPBiCGStab:  Solving for ILambda_13_0, Initial residual = 0.04793399, Final residual = 0.002855634, No Iterations 7
DILUPBiCGStab:  Solving for ILambda_14_0, Initial residual = 0.053609, Final residual = 0.002328277, No Iterations 9
DILUPBiCGStab:  Solving for ILambda_15_0, Initial residual = 0.04504863, Final residual = 0.001842589, No Iterations 9
Radiation solver iter: 6
DILUPBiCGStab:  Solving for ILambda_0_0, Initial residual = 0.05520223, Final residual = 6.460013e-17, No Iterations 1
DILUPBiCGStab:  Solving for ILambda_1_0, Initial residual = 0.05472736, Final residual = 3.908383e-17, No Iterations 1
DILUPBiCGStab:  Solving for ILambda_2_0, Initial residual = 0.03617379, Final residual = 2.366824e-17, No Iterations 1
DILUPBiCGStab:  Solving for ILambda_3_0, Initial residual = 0.004153341, Final residual = 2.555462e-18, No Iterations 1
DILUPBiCGStab:  Solving for ILambda_4_0, Initial residual = 0.003969451, Final residual = 0.0002447993, No Iterations 2
DILUPBiCGStab:  Solving for ILambda_5_0, Initial residual = 0.0370325, Final residual = 0.003149472, No Iterations 3
DILUPBiCGStab:  Solving for ILambda_6_0, Initial residual = 0.05546777, Final residual = 0.001827995, No Iterations 4
DILUPBiCGStab:  Solving for ILambda_7_0, Initial residual = 0.03025071, Final residual = 0.001173305, No Iterations 4
DILUPBiCGStab:  Solving for ILambda_8_0, Initial residual = 0.01429768, Final residual = 9.938232e-18, No Iterations 1
DILUPBiCGStab:  Solving for ILambda_9_0, Initial residual = 0.02964228, Final residual = 2.419918e-17, No Iterations 1
DILUPBiCGStab:  Solving for ILambda_10_0, Initial residual = 0.02897871, Final residual = 3.142404e-17, No Iterations 1
DILUPBiCGStab:  Solving for ILambda_11_0, Initial residual = 0.02060315, Final residual = 5.077128e-17, No Iterations 1
DILUPBiCGStab:  Solving for ILambda_12_0, Initial residual = 0.02419617, Final residual = 0.002044367, No Iterations 3
DILUPBiCGStab:  Solving for ILambda_13_0, Initial residual = 0.03896136, Final residual = 0.00337907, No Iterations 6
DILUPBiCGStab:  Solving for ILambda_14_0, Initial residual = 0.04785253, Final residual = 0.001050315, No Iterations 11
DILUPBiCGStab:  Solving for ILambda_15_0, Initial residual = 0.04006161, Final residual = 0.00221625, No Iterations 8
Radiation solver iter: 7
DILUPBiCGStab:  Solving for ILambda_0_0, Initial residual = 0.04669005, Final residual = 5.475711e-17, No Iterations 1
DILUPBiCGStab:  Solving for ILambda_1_0, Initial residual = 0.04285209, Final residual = 2.479961e-17, No Iterations 1
DILUPBiCGStab:  Solving for ILambda_2_0, Initial residual = 0.02335563, Final residual = 1.426109e-17, No Iterations 1
DILUPBiCGStab:  Solving for ILambda_3_0, Initial residual = 0.001525296, Final residual = 8.615237e-19, No Iterations 1
DILUPBiCGStab:  Solving for ILambda_4_0, Initial residual = 0.001496891, Final residual = 0.0001169953, No Iterations 2
DILUPBiCGStab:  Solving for ILambda_5_0, Initial residual = 0.02329616, Final residual = 0.001830137, No Iterations 3
DILUPBiCGStab:  Solving for ILambda_6_0, Initial residual = 0.04320571, Final residual = 0.003178793, No Iterations 2
DILUPBiCGStab:  Solving for ILambda_7_0, Initial residual = 0.02360257, Final residual = 0.001720623, No Iterations 3
DILUPBiCGStab:  Solving for ILambda_8_0, Initial residual = 0.01264327, Final residual = 8.987898e-18, No Iterations 1
DILUPBiCGStab:  Solving for ILambda_9_0, Initial residual = 0.02626677, Final residual = 2.059268e-17, No Iterations 1
DILUPBiCGStab:  Solving for ILambda_10_0, Initial residual = 0.02376015, Final residual = 2.642607e-17, No Iterations 1
DILUPBiCGStab:  Solving for ILambda_11_0, Initial residual = 0.01719448, Final residual = 4.101413e-17, No Iterations 1
DILUPBiCGStab:  Solving for ILambda_12_0, Initial residual = 0.01953317, Final residual = 0.001617307, No Iterations 3
DILUPBiCGStab:  Solving for ILambda_13_0, Initial residual = 0.03174173, Final residual = 0.002759371, No Iterations 6
DILUPBiCGStab:  Solving for ILambda_14_0, Initial residual = 0.0420963, Final residual = 0.002934551, No Iterations 6
DILUPBiCGStab:  Solving for ILambda_15_0, Initial residual = 0.03536017, Final residual = 0.002910544, No Iterations 5
Radiation solver iter: 8
DILUPBiCGStab:  Solving for ILambda_0_0, Initial residual = 0.03873152, Final residual = 3.842582e-17, No Iterations 1
DILUPBiCGStab:  Solving for ILambda_1_0, Initial residual = 0.03351451, Final residual = 1.914355e-17, No Iterations 1
DILUPBiCGStab:  Solving for ILambda_2_0, Initial residual = 0.01438598, Final residual = 7.333028e-18, No Iterations 1
DILUPBiCGStab:  Solving for ILambda_3_0, Initial residual = 0.0005997646, Final residual = 5.19264e-19, No Iterations 1
DILUPBiCGStab:  Solving for ILambda_4_0, Initial residual = 0.0006227859, Final residual = 8.692867e-05, No Iterations 2
DILUPBiCGStab:  Solving for ILambda_5_0, Initial residual = 0.01391297, Final residual = 0.001086929, No Iterations 3
DILUPBiCGStab:  Solving for ILambda_6_0, Initial residual = 0.03397663, Final residual = 0.002886152, No Iterations 2
DILUPBiCGStab:  Solving for ILambda_7_0, Initial residual = 0.01855993, Final residual = 0.001726399, No Iterations 2
DILUPBiCGStab:  Solving for ILambda_8_0, Initial residual = 0.01085422, Final residual = 7.427912e-18, No Iterations 1
DILUPBiCGStab:  Solving for ILambda_9_0, Initial residual = 0.02297358, Final residual = 1.782274e-17, No Iterations 1
DILUPBiCGStab:  Solving for ILambda_10_0, Initial residual = 0.01918304, Final residual = 2.195566e-17, No Iterations 1
DILUPBiCGStab:  Solving for ILambda_11_0, Initial residual = 0.01305709, Final residual = 2.954543e-17, No Iterations 1
DILUPBiCGStab:  Solving for ILambda_12_0, Initial residual = 0.01458697, Final residual = 0.001269152, No Iterations 3
DILUPBiCGStab:  Solving for ILambda_13_0, Initial residual = 0.02599904, Final residual = 0.002469207, No Iterations 5
DILUPBiCGStab:  Solving for ILambda_14_0, Initial residual = 0.03732651, Final residual = 0.003071837, No Iterations 5
DILUPBiCGStab:  Solving for ILambda_15_0, Initial residual = 0.0309609, Final residual = 0.002688434, No Iterations 5
Radiation solver iter: 9
DILUPBiCGStab:  Solving for ILambda_0_0, Initial residual = 0.03171409, Final residual = 3.139233e-17, No Iterations 1
DILUPBiCGStab:  Solving for ILambda_1_0, Initial residual = 0.02642338, Final residual = 1.284453e-17, No Iterations 1
DILUPBiCGStab:  Solving for ILambda_2_0, Initial residual = 0.008548299, Final residual = 4.817745e-18, No Iterations 1
DILUPBiCGStab:  Solving for ILambda_5_0, Initial residual = 0.008034173, Final residual = 0.0006188408, No Iterations 3
DILUPBiCGStab:  Solving for ILambda_6_0, Initial residual = 0.02680212, Final residual = 0.002322295, No Iterations 3
DILUPBiCGStab:  Solving for ILambda_7_0, Initial residual = 0.01436641, Final residual = 0.001019505, No Iterations 2
DILUPBiCGStab:  Solving for ILambda_8_0, Initial residual = 0.009243232, Final residual = 6.540294e-18, No Iterations 1
DILUPBiCGStab:  Solving for ILambda_9_0, Initial residual = 0.02001044, Final residual = 1.422728e-17, No Iterations 1
DILUPBiCGStab:  Solving for ILambda_10_0, Initial residual = 0.01558515, Final residual = 1.780181e-17, No Iterations 1
DILUPBiCGStab:  Solving for ILambda_11_0, Initial residual = 0.009628237, Final residual = 2.199169e-17, No Iterations 1
DILUPBiCGStab:  Solving for ILambda_12_0, Initial residual = 0.0107841, Final residual = 0.000847677, No Iterations 3
DILUPBiCGStab:  Solving for ILambda_13_0, Initial residual = 0.02163162, Final residual = 0.00211097, No Iterations 5
DILUPBiCGStab:  Solving for ILambda_14_0, Initial residual = 0.03294464, Final residual = 0.003127168, No Iterations 4
DILUPBiCGStab:  Solving for ILambda_15_0, Initial residual = 0.0267759, Final residual = 0.002407158, No Iterations 6
Radiation solver iter: 10
DILUPBiCGStab:  Solving for ILambda_0_0, Initial residual = 0.02577469, Final residual = 2.313719e-17, No Iterations 1
DILUPBiCGStab:  Solving for ILambda_1_0, Initial residual = 0.02103166, Final residual = 1.185946e-17, No Iterations 1
DILUPBiCGStab:  Solving for ILambda_2_0, Initial residual = 0.004935035, Final residual = 1.812193e-18, No Iterations 1
DILUPBiCGStab:  Solving for ILambda_5_0, Initial residual = 0.004519222, Final residual = 0.0004412622, No Iterations 2
DILUPBiCGStab:  Solving for ILambda_6_0, Initial residual = 0.02083917, Final residual = 0.001539512, No Iterations 3
DILUPBiCGStab:  Solving for ILambda_7_0, Initial residual = 0.01101941, Final residual = 0.0006582673, No Iterations 2
DILUPBiCGStab:  Solving for ILambda_8_0, Initial residual = 0.00787484, Final residual = 5.586318e-18, No Iterations 1
DILUPBiCGStab:  Solving for ILambda_9_0, Initial residual = 0.01725336, Final residual = 1.27539e-17, No Iterations 1
DILUPBiCGStab:  Solving for ILambda_10_0, Initial residual = 0.0127129, Final residual = 1.441979e-17, No Iterations 1
DILUPBiCGStab:  Solving for ILambda_11_0, Initial residual = 0.007026298, Final residual = 1.59239e-17, No Iterations 1
DILUPBiCGStab:  Solving for ILambda_12_0, Initial residual = 0.007881063, Final residual = 0.0006283069, No Iterations 3
DILUPBiCGStab:  Solving for ILambda_13_0, Initial residual = 0.0176841, Final residual = 0.0009082058, No Iterations 6
DILUPBiCGStab:  Solving for ILambda_14_0, Initial residual = 0.02864665, Final residual = 0.002610277, No Iterations 4
DILUPBiCGStab:  Solving for ILambda_15_0, Initial residual = 0.02307552, Final residual = 0.002047069, No Iterations 5
Radiation solver iter: 11
DILUPBiCGStab:  Solving for ILambda_0_0, Initial residual = 0.02088637, Final residual = 1.708246e-17, No Iterations 1
DILUPBiCGStab:  Solving for ILambda_1_0, Initial residual = 0.01673811, Final residual = 6.902091e-18, No Iterations 1
DILUPBiCGStab:  Solving for ILambda_2_0, Initial residual = 0.002781805, Final residual = 1.175138e-18, No Iterations 1
DILUPBiCGStab:  Solving for ILambda_5_0, Initial residual = 0.002481206, Final residual = 0.0001873842, No Iterations 2
DILUPBiCGStab:  Solving for ILambda_6_0, Initial residual = 0.01639992, Final residual = 0.001363957, No Iterations 3
DILUPBiCGStab:  Solving for ILambda_7_0, Initial residual = 0.008469796, Final residual = 0.0004720934, No Iterations 2
DILUPBiCGStab:  Solving for ILambda_8_0, Initial residual = 0.006740976, Final residual = 4.716914e-18, No Iterations 1
DILUPBiCGStab:  Solving for ILambda_9_0, Initial residual = 0.01473757, Final residual = 9.749372e-18, No Iterations 1
DILUPBiCGStab:  Solving for ILambda_10_0, Initial residual = 0.01037809, Final residual = 1.123905e-17, No Iterations 1
DILUPBiCGStab:  Solving for ILambda_11_0, Initial residual = 0.005267739, Final residual = 1.153306e-17, No Iterations 1
DILUPBiCGStab:  Solving for ILambda_12_0, Initial residual = 0.005889039, Final residual = 0.0004730739, No Iterations 3
DILUPBiCGStab:  Solving for ILambda_13_0, Initial residual = 0.01414376, Final residual = 0.001364784, No Iterations 4
DILUPBiCGStab:  Solving for ILambda_14_0, Initial residual = 0.02442153, Final residual = 0.002241801, No Iterations 4
DILUPBiCGStab:  Solving for ILambda_15_0, Initial residual = 0.01968833, Final residual = 0.001226693, No Iterations 5
Radiation solver iter: 12
DILUPBiCGStab:  Solving for ILambda_0_0, Initial residual = 0.01690927, Final residual = 1.689261e-17, No Iterations 1
DILUPBiCGStab:  Solving for ILambda_1_0, Initial residual = 0.01317319, Final residual = 5.203718e-18, No Iterations 1
DILUPBiCGStab:  Solving for ILambda_2_0, Initial residual = 0.001527219, Final residual = 5.102595e-19, No Iterations 1
DILUPBiCGStab:  Solving for ILambda_5_0, Initial residual = 0.001340936, Final residual = 0.0001129495, No Iterations 2
DILUPBiCGStab:  Solving for ILambda_6_0, Initial residual = 0.01262786, Final residual = 0.001020078, No Iterations 2
DILUPBiCGStab:  Solving for ILambda_7_0, Initial residual = 0.006542902, Final residual = 0.0006474913, No Iterations 2
DILUPBiCGStab:  Solving for ILambda_8_0, Initial residual = 0.005759927, Final residual = 4.219579e-18, No Iterations 1
DILUPBiCGStab:  Solving for ILambda_9_0, Initial residual = 0.01239502, Final residual = 8.155781e-18, No Iterations 1
DILUPBiCGStab:  Solving for ILambda_10_0, Initial residual = 0.008353334, Final residual = 8.082635e-18, No Iterations 1
DILUPBiCGStab:  Solving for ILambda_11_0, Initial residual = 0.004091516, Final residual = 8.936119e-18, No Iterations 1
DILUPBiCGStab:  Solving for ILambda_12_0, Initial residual = 0.00460364, Final residual = 0.0003988524, No Iterations 3
DILUPBiCGStab:  Solving for ILambda_13_0, Initial residual = 0.01131162, Final residual = 0.0009773675, No Iterations 4
DILUPBiCGStab:  Solving for ILambda_14_0, Initial residual = 0.020586, Final residual = 0.001811518, No Iterations 4
DILUPBiCGStab:  Solving for ILambda_15_0, Initial residual = 0.01665765, Final residual = 0.001381032, No Iterations 4
Radiation solver iter: 13
DILUPBiCGStab:  Solving for ILambda_0_0, Initial residual = 0.01371279, Final residual = 9.631755e-18, No Iterations 1
DILUPBiCGStab:  Solving for ILambda_1_0, Initial residual = 0.0101819, Final residual = 4.270476e-18, No Iterations 1
DILUPBiCGStab:  Solving for ILambda_2_0, Initial residual = 0.000823029, Final residual = 2.733392e-19, No Iterations 1
DILUPBiCGStab:  Solving for ILambda_5_0, Initial residual = 0.0007229932, Final residual = 5.608363e-05, No Iterations 2
DILUPBiCGStab:  Solving for ILambda_6_0, Initial residual = 0.009533082, Final residual = 0.0004918738, No Iterations 2
DILUPBiCGStab:  Solving for ILambda_7_0, Initial residual = 0.005098983, Final residual = 0.0004816731, No Iterations 2
DILUPBiCGStab:  Solving for ILambda_8_0, Initial residual = 0.004916561, Final residual = 3.551783e-18, No Iterations 1
DILUPBiCGStab:  Solving for ILambda_9_0, Initial residual = 0.01030911, Final residual = 6.012489e-18, No Iterations 1
DILUPBiCGStab:  Solving for ILambda_10_0, Initial residual = 0.006638608, Final residual = 6.016832e-18, No Iterations 1
DILUPBiCGStab:  Solving for ILambda_11_0, Initial residual = 0.003341254, Final residual = 7.262741e-18, No Iterations 1
DILUPBiCGStab:  Solving for ILambda_12_0, Initial residual = 0.003789127, Final residual = 0.0003387114, No Iterations 3
DILUPBiCGStab:  Solving for ILambda_13_0, Initial residual = 0.008928933, Final residual = 0.0007878354, No Iterations 5
DILUPBiCGStab:  Solving for ILambda_14_0, Initial residual = 0.01717021, Final residual = 0.001251508, No Iterations 4
DILUPBiCGStab:  Solving for ILambda_15_0, Initial residual = 0.01424107, Final residual = 0.001384573, No Iterations 4
Radiation solver iter: 14
DILUPBiCGStab:  Solving for ILambda_0_0, Initial residual = 0.01113585, Final residual = 8.171943e-18, No Iterations 1
DILUPBiCGStab:  Solving for ILambda_1_0, Initial residual = 0.007688828, Final residual = 3.146182e-18, No Iterations 1
DILUPBiCGStab:  Solving for ILambda_6_0, Initial residual = 0.006912822, Final residual = 0.0005331292, No Iterations 2
DILUPBiCGStab:  Solving for ILambda_7_0, Initial residual = 0.003990543, Final residual = 0.000358925, No Iterations 2
DILUPBiCGStab:  Solving for ILambda_8_0, Initial residual = 0.004147739, Final residual = 2.525795e-18, No Iterations 1
DILUPBiCGStab:  Solving for ILambda_9_0, Initial residual = 0.008462004, Final residual = 5.012752e-18, No Iterations 1
DILUPBiCGStab:  Solving for ILambda_10_0, Initial residual = 0.005207195, Final residual = 4.775697e-18, No Iterations 1
DILUPBiCGStab:  Solving for ILambda_11_0, Initial residual = 0.002796811, Final residual = 6.009338e-18, No Iterations 1
DILUPBiCGStab:  Solving for ILambda_12_0, Initial residual = 0.003148329, Final residual = 0.0002296811, No Iterations 4
DILUPBiCGStab:  Solving for ILambda_13_0, Initial residual = 0.006992099, Final residual = 0.0005541793, No Iterations 4
DILUPBiCGStab:  Solving for ILambda_14_0, Initial residual = 0.01413343, Final residual = 0.0009901967, No Iterations 4
DILUPBiCGStab:  Solving for ILambda_15_0, Initial residual = 0.012109, Final residual = 0.0008314389, No Iterations 4
GAMG:  Solving for p_rgh, Initial residual = 0.02351534, Final residual = 4.991064e-05, No Iterations 2
limitVelocity limitU Limited 0 (0%) of cells, with max limit 5
time step continuity errors : sum local = 0.0003127999, global = 2.220719e-17, cumulative = 2.955186e-15
rho min/max : 0.52043 0.9430006
DILUPBiCGStab:  Solving for omega, Initial residual = 0.000198675, Final residual = 6.17511e-06, No Iterations 1
DILUPBiCGStab:  Solving for k, Initial residual = 0.0002560868, Final residual = 1.379491e-05, No Iterations 1
ExecutionTime = 1.09 s  ClockTime = 1 s

Time = 4804

DILUPBiCGStab:  Solving for h, Initial residual = 7.35661e-05, Final residual = 1.866605e-09, No Iterations 1
limitTemperature limitT Lower limited 0 (0%) of cells, with min limit 280
limitTemperature limitT Upper limited 0 (0%) of cells, with max limit 1200
limitTemperature limitT Unlimited Tmin 418.0287
limitTemperature limitT Unlimited Tmax 504.4824
GAMG:  Solving for p_rgh, Initial residual = 0.01702629, Final residual = 4.638826e-05, No Iterations 2
limitVelocity limitU Limited 0 (0%) of cells, with max limit 5
time step continuity errors : sum local = 0.0002874208, global = 6.546577e-18, cumulative = 2.961733e-15
rho min/max : 0.5589961 0.943291
DILUPBiCGStab:  Solving for omega, Initial residual = 0.0001682784, Final residual = 5.507574e-06, No Iterations 1
DILUPBiCGStab:  Solving for k, Initial residual = 0.0002390654, Final residual = 1.272472e-05, No Iterations 1
ExecutionTime = 1.11 s  ClockTime = 1 s

Time = 4805

DILUPBiCGStab:  Solving for h, Initial residual = 7.444119e-05, Final residual = 1.9944e-09, No Iterations 1
limitTemperature limitT Lower limited 0 (0%) of cells, with min limit 280
limitTemperature limitT Upper limited 0 (0%) of cells, with max limit 1200
limitTemperature limitT Unlimited Tmin 418.0308
limitTemperature limitT Unlimited Tmax 504.5704
GAMG:  Solving for p_rgh, Initial residual = 0.01143088, Final residual = 4.123769e-05, No Iterations 2
limitVelocity limitU Limited 0 (0%) of cells, with max limit 5
time step continuity errors : sum local = 0.0002436882, global = -2.358217e-17, cumulative = 2.938151e-15
rho min/max : 0.54717 0.9435585
DILUPBiCGStab:  Solving for omega, Initial residual = 0.0001749041, Final residual = 5.537542e-06, No Iterations 1
DILUPBiCGStab:  Solving for k, Initial residual = 0.0002547436, Final residual = 1.307818e-05, No Iterations 1
ExecutionTime = 1.12 s  ClockTime = 1 s

Time = 4806

DILUPBiCGStab:  Solving for h, Initial residual = 7.72509e-05, Final residual = 2.636787e-09, No Iterations 1
limitTemperature limitT Lower limited 0 (0%) of cells, with min limit 280
limitTemperature limitT Upper limited 0 (0%) of cells, with max limit 1200
limitTemperature limitT Unlimited Tmin 418.0324
limitTemperature limitT Unlimited Tmax 504.6819
Radiation solver iter: 0
DILUPBiCGStab:  Solving for ILambda_0_0, Initial residual = 0.121775, Final residual = 4.481913e-16, No Iterations 1
DILUPBiCGStab:  Solving for ILambda_1_0, Initial residual = 0.2181792, Final residual = 8.676268e-16, No Iterations 1
DILUPBiCGStab:  Solving for ILambda_2_0, Initial residual = 0.3397834, Final residual = 1.303303e-15, No Iterations 1
DILUPBiCGStab:  Solving for ILambda_3_0, Initial residual = 0.5427311, Final residual = 2.3219e-15, No Iterations 1
DILUPBiCGStab:  Solving for ILambda_4_0, Initial residual = 0.552965, Final residual = 0.02975265, No Iterations 4
DILUPBiCGStab:  Solving for ILambda_5_0, Initial residual = 0.3516487, Final residual = 0.03351282, No Iterations 8
DILUPBiCGStab:  Solving for ILambda_6_0, Initial residual = 0.2289795, Final residual = 0.0211883, No Iterations 18
DILUPBiCGStab:  Solving for ILambda_7_0, Initial residual = 0.136839, Final residual = 0.01203356, No Iterations 25
DILUPBiCGStab:  Solving for ILambda_8_0, Initial residual = 0.05323208, Final residual = 4.333458e-16, No Iterations 1
DILUPBiCGStab:  Solving for ILambda_9_0, Initial residual = 0.0982952, Final residual = 5.865451e-16, No Iterations 1
DILUPBiCGStab:  Solving for ILambda_10_0, Initial residual = 0.1417527, Final residual = 7.391042e-16, No Iterations 1
DILUPBiCGStab:  Solving for ILambda_11_0, Initial residual = 0.1993181, Final residual = 1.033776e-15, No Iterations 1
DILUPBiCGStab:  Solving for ILambda_12_0, Initial residual = 0.2221772, Final residual = 0.02113419, No Iterations 4
DILUPBiCGStab:  Solving for ILambda_13_0, Initial residual = 0.1786308, Final residual = 0.01488881, No Iterations 9
DILUPBiCGStab:  Solving for ILambda_14_0, Initial residual = 0.1403297, Final residual = 0.01056393, No Iterations 13
DILUPBiCGStab:  Solving for ILambda_15_0, Initial residual = 0.1078925, Final residual = 0.005923987, No Iterations 29
Radiation solver iter: 1
DILUPBiCGStab:  Solving for ILambda_0_0, Initial residual = 0.1114674, Final residual = 1.917153e-16, No Iterations 1
DILUPBiCGStab:  Solving for ILambda_1_0, Initial residual = 0.1540708, Final residual = 2.78604e-16, No Iterations 1
DILUPBiCGStab:  Solving for ILambda_2_0, Initial residual = 0.1771633, Final residual = 2.754203e-16, No Iterations 1
DILUPBiCGStab:  Solving for ILambda_3_0, Initial residual = 0.1631815, Final residual = 2.911193e-16, No Iterations 1
DILUPBiCGStab:  Solving for ILambda_4_0, Initial residual = 0.167034, Final residual = 0.008940141, No Iterations 3
DILUPBiCGStab:  Solving for ILambda_5_0, Initial residual = 0.1837704, Final residual = 0.01392185, No Iterations 7
DILUPBiCGStab:  Solving for ILambda_6_0, Initial residual = 0.1586188, Final residual = 0.01007853, No Iterations 9
DILUPBiCGStab:  Solving for ILambda_7_0, Initial residual = 0.1155414, Final residual = 0.01061383, No Iterations 5
DILUPBiCGStab:  Solving for ILambda_8_0, Initial residual = 0.02150919, Final residual = 4.031628e-17, No Iterations 1
DILUPBiCGStab:  Solving for ILambda_9_0, Initial residual = 0.03509735, Final residual = 6.435056e-17, No Iterations 1
DILUPBiCGStab:  Solving for ILambda_10_0, Initial residual = 0.04333239, Final residual = 9.069255e-17, No Iterations 1
DILUPBiCGStab:  Solving for ILambda_11_0, Initial residual = 0.0500051, Final residual = 1.55258e-16, No Iterations 1
DILUPBiCGStab:  Solving for ILambda_12_0, Initial residual = 0.07285758, Final residual = 0.003926263, No Iterations 4
DILUPBiCGStab:  Solving for ILambda_13_0, Initial residual = 0.06617575, Final residual = 0.003498617, No Iterations 8
DILUPBiCGStab:  Solving for ILambda_14_0, Initial residual = 0.05866132, Final residual = 0.002398406, No Iterations 13
DILUPBiCGStab:  Solving for ILambda_15_0, Initial residual = 0.05747954, Final residual = 0.002348858, No Iterations 24
Radiation solver iter: 2
DILUPBiCGStab:  Solving for ILambda_0_0, Initial residual = 0.09596972, Final residual = 1.553719e-16, No Iterations 1
DILUPBiCGStab:  Solving for ILambda_1_0, Initial residual = 0.1206254, Final residual = 1.329587e-16, No Iterations 1
DILUPBiCGStab:  Solving for ILambda_2_0, Initial residual = 0.1326803, Final residual = 1.222415e-16, No Iterations 1
DILUPBiCGStab:  Solving for ILambda_3_0, Initial residual = 0.09584603, Final residual = 1.070458e-16, No Iterations 1
DILUPBiCGStab:  Solving for ILambda_4_0, Initial residual = 0.09387022, Final residual = 0.004672833, No Iterations 3
DILUPBiCGStab:  Solving for ILambda_5_0, Initial residual = 0.1314397, Final residual = 0.01221535, No Iterations 5
DILUPBiCGStab:  Solving for ILambda_6_0, Initial residual = 0.1196332, Final residual = 0.01026151, No Iterations 5
DILUPBiCGStab:  Solving for ILambda_7_0, Initial residual = 0.07800216, Final residual = 0.00774177, No Iterations 4
DILUPBiCGStab:  Solving for ILambda_8_0, Initial residual = 0.01944649, Final residual = 1.961604e-17, No Iterations 1
DILUPBiCGStab:  Solving for ILambda_9_0, Initial residual = 0.03412201, Final residual = 4.187326e-17, No Iterations 1
DILUPBiCGStab:  Solving for ILambda_10_0, Initial residual = 0.04244116, Final residual = 6.804779e-17, No Iterations 1
DILUPBiCGStab:  Solving for ILambda_11_0, Initial residual = 0.04198329, Final residual = 1.044751e-16, No Iterations 1
DILUPBiCGStab:  Solving for ILambda_12_0, Initial residual = 0.0486379, Final residual = 0.002050322, No Iterations 4
DILUPBiCGStab:  Solving for ILambda_13_0, Initial residual = 0.05757792, Final residual = 0.004369944, No Iterations 8
DILUPBiCGStab:  Solving for ILambda_14_0, Initial residual = 0.05216658, Final residual = 0.004861078, No Iterations 11
DILUPBiCGStab:  Solving for ILambda_15_0, Initial residual = 0.05238453, Final residual = 0.005070579, No Iterations 11
Radiation solver iter: 3
DILUPBiCGStab:  Solving for ILambda_0_0, Initial residual = 0.08209459, Final residual = 1.315923e-16, No Iterations 1
DILUPBiCGStab:  Solving for ILambda_1_0, Initial residual = 0.09142241, Final residual = 8.801601e-17, No Iterations 1
DILUPBiCGStab:  Solving for ILambda_2_0, Initial residual = 0.08921983, Final residual = 7.508206e-17, No Iterations 1
DILUPBiCGStab:  Solving for ILambda_3_0, Initial residual = 0.04486864, Final residual = 4.1839e-17, No Iterations 1
DILUPBiCGStab:  Solving for ILambda_4_0, Initial residual = 0.04454563, Final residual = 0.002588101, No Iterations 2
DILUPBiCGStab:  Solving for ILambda_5_0, Initial residual = 0.09306682, Final residual = 0.008541648, No Iterations 4
DILUPBiCGStab:  Solving for ILambda_6_0, Initial residual = 0.09224508, Final residual = 0.008518019, No Iterations 4
DILUPBiCGStab:  Solving for ILambda_7_0, Initial residual = 0.05631938, Final residual = 0.002734561, No Iterations 5
DILUPBiCGStab:  Solving for ILambda_8_0, Initial residual = 0.01752383, Final residual = 1.676778e-17, No Iterations 1
DILUPBiCGStab:  Solving for ILambda_9_0, Initial residual = 0.03291402, Final residual = 3.478e-17, No Iterations 1
DILUPBiCGStab:  Solving for ILambda_10_0, Initial residual = 0.03938348, Final residual = 5.023455e-17, No Iterations 1
DILUPBiCGStab:  Solving for ILambda_11_0, Initial residual = 0.03019013, Final residual = 6.180895e-17, No Iterations 1
DILUPBiCGStab:  Solving for ILambda_12_0, Initial residual = 0.03447753, Final residual = 0.002665885, No Iterations 3
DILUPBiCGStab:  Solving for ILambda_13_0, Initial residual = 0.05339076, Final residual = 0.001593231, No Iterations 8
DILUPBiCGStab:  Solving for ILambda_14_0, Initial residual = 0.05165783, Final residual = 0.004331278, No Iterations 9
DILUPBiCGStab:  Solving for ILambda_15_0, Initial residual = 0.04877984, Final residual = 0.004041428, No Iterations 11
Radiation solver iter: 4
DILUPBiCGStab:  Solving for ILambda_0_0, Initial residual = 0.06953091, Final residual = 9.772629e-17, No Iterations 1
DILUPBiCGStab:  Solving for ILambda_1_0, Initial residual = 0.0721507, Final residual = 5.799675e-17, No Iterations 1
DILUPBiCGStab:  Solving for ILambda_2_0, Initial residual = 0.06152115, Final residual = 4.413523e-17, No Iterations 1
DILUPBiCGStab:  Solving for ILambda_3_0, Initial residual = 0.0194653, Final residual = 1.723992e-17, No Iterations 1
DILUPBiCGStab:  Solving for ILambda_4_0, Initial residual = 0.01927298, Final residual = 0.001676696, No Iterations 2
DILUPBiCGStab:  Solving for ILambda_5_0, Initial residual = 0.0665556, Final residual = 0.005077608, No Iterations 4
DILUPBiCGStab:  Solving for ILambda_6_0, Initial residual = 0.07372111, Final residual = 0.005123515, No Iterations 3
DILUPBiCGStab:  Solving for ILambda_7_0, Initial residual = 0.0413402, Final residual = 0.003340563, No Iterations 3
DILUPBiCGStab:  Solving for ILambda_8_0, Initial residual = 0.01580606, Final residual = 1.37912e-17, No Iterations 1
DILUPBiCGStab:  Solving for ILambda_9_0, Initial residual = 0.03172199, Final residual = 2.801365e-17, No Iterations 1
DILUPBiCGStab:  Solving for ILambda_10_0, Initial residual = 0.03504342, Final residual = 3.607058e-17, No Iterations 1
DILUPBiCGStab:  Solving for ILambda_11_0, Initial residual = 0.02241688, Final residual = 4.1282e-17, No Iterations 1
DILUPBiCGStab:  Solving for ILambda_12_0, Initial residual = 0.0257272, Final residual = 0.001999835, No Iterations 3
DILUPBiCGStab:  Solving for ILambda_13_0, Initial residual = 0.04644286, Final residual = 0.004152541, No Iterations 6
DILUPBiCGStab:  Solving for ILambda_14_0, Initial residual = 0.04943938, Final residual = 0.003448904, No Iterations 11
DILUPBiCGStab:  Solving for ILambda_15_0, Initial residual = 0.04453142, Final residual = 0.003182749, No Iterations 9
Radiation solver iter: 5
DILUPBiCGStab:  Solving for ILambda_0_0, Initial residual = 0.05774285, Final residual = 7.832205e-17, No Iterations 1
DILUPBiCGStab:  Solving for ILambda_1_0, Initial residual = 0.05721979, Final residual = 3.842048e-17, No Iterations 1
DILUPBiCGStab:  Solving for ILambda_2_0, Initial residual = 0.04254359, Final residual = 3.119041e-17, No Iterations 1
DILUPBiCGStab:  Solving for ILambda_3_0, Initial residual = 0.008201922, Final residual = 5.173976e-18, No Iterations 1
DILUPBiCGStab:  Solving for ILambda_4_0, Initial residual = 0.008389669, Final residual = 0.0005596952, No Iterations 2
DILUPBiCGStab:  Solving for ILambda_5_0, Initial residual = 0.04518006, Final residual = 0.002325781, No Iterations 4
DILUPBiCGStab:  Solving for ILambda_6_0, Initial residual = 0.05872254, Final residual = 0.004337729, No Iterations 3
DILUPBiCGStab:  Solving for ILambda_7_0, Initial residual = 0.03157757, Final residual = 0.00291677, No Iterations 3
DILUPBiCGStab:  Solving for ILambda_8_0, Initial residual = 0.01469966, Final residual = 1.073243e-17, No Iterations 1
DILUPBiCGStab:  Solving for ILambda_9_0, Initial residual = 0.02934248, Final residual = 2.425777e-17, No Iterations 1
DILUPBiCGStab:  Solving for ILambda_10_0, Initial residual = 0.02937101, Final residual = 3.059298e-17, No Iterations 1
DILUPBiCGStab:  Solving for ILambda_11_0, Initial residual = 0.01840905, Final residual = 4.276326e-17, No Iterations 1
DILUPBiCGStab:  Solving for ILambda_12_0, Initial residual = 0.02186246, Final residual = 0.001579167, No Iterations 3
DILUPBiCGStab:  Solving for ILambda_13_0, Initial residual = 0.03869862, Final residual = 0.003579889, No Iterations 5
DILUPBiCGStab:  Solving for ILambda_14_0, Initial residual = 0.04510877, Final residual = 0.002388155, No Iterations 9
DILUPBiCGStab:  Solving for ILambda_15_0, Initial residual = 0.04075412, Final residual = 0.001783305, No Iterations 9
Radiation solver iter: 6
DILUPBiCGStab:  Solving for ILambda_0_0, Initial residual = 0.04730727, Final residual = 5.72684e-17, No Iterations 1
DILUPBiCGStab:  Solving for ILambda_1_0, Initial residual = 0.04471764, Final residual = 2.805023e-17, No Iterations 1
DILUPBiCGStab:  Solving for ILambda_2_0, Initial residual = 0.02870482, Final residual = 1.969648e-17, No Iterations 1
DILUPBiCGStab:  Solving for ILambda_3_0, Initial residual = 0.003275058, Final residual = 2.034413e-18, No Iterations 1
DILUPBiCGStab:  Solving for ILambda_4_0, Initial residual = 0.003270675, Final residual = 0.0001894152, No Iterations 2
DILUPBiCGStab:  Solving for ILambda_5_0, Initial residual = 0.02933753, Final residual = 0.00166863, No Iterations 4
DILUPBiCGStab:  Solving for ILambda_6_0, Initial residual = 0.04611595, Final residual = 0.00437947, No Iterations 3
DILUPBiCGStab:  Solving for ILambda_7_0, Initial residual = 0.02453173, Final residual = 0.00084771, No Iterations 4
DILUPBiCGStab:  Solving for ILambda_8_0, Initial residual = 0.01339944, Final residual = 8.970606e-18, No Iterations 1
DILUPBiCGStab:  Solving for ILambda_9_0, Initial residual = 0.02635506, Final residual = 2.017284e-17, No Iterations 1
DILUPBiCGStab:  Solving for ILambda_10_0, Initial residual = 0.02436833, Final residual = 2.825579e-17, No Iterations 1
DILUPBiCGStab:  Solving for ILambda_11_0, Initial residual = 0.0168087, Final residual = 4.20915e-17, No Iterations 1
DILUPBiCGStab:  Solving for ILambda_12_0, Initial residual = 0.01921502, Final residual = 0.001577753, No Iterations 3
DILUPBiCGStab:  Solving for ILambda_13_0, Initial residual = 0.03190745, Final residual = 0.00296702, No Iterations 6
DILUPBiCGStab:  Solving for ILambda_14_0, Initial residual = 0.04058322, Final residual = 0.002889046, No Iterations 9
DILUPBiCGStab:  Solving for ILambda_15_0, Initial residual = 0.03696343, Final residual = 0.003445107, No Iterations 6
Radiation solver iter: 7
DILUPBiCGStab:  Solving for ILambda_0_0, Initial residual = 0.03842892, Final residual = 4.223926e-17, No Iterations 1
DILUPBiCGStab:  Solving for ILambda_1_0, Initial residual = 0.03458769, Final residual = 2.222193e-17, No Iterations 1
DILUPBiCGStab:  Solving for ILambda_2_0, Initial residual = 0.01852786, Final residual = 1.218724e-17, No Iterations 1
DILUPBiCGStab:  Solving for ILambda_3_0, Initial residual = 0.001198598, Final residual = 7.774981e-19, No Iterations 1
DILUPBiCGStab:  Solving for ILambda_4_0, Initial residual = 0.00122321, Final residual = 8.851085e-05, No Iterations 2
DILUPBiCGStab:  Solving for ILambda_5_0, Initial residual = 0.01843311, Final residual = 0.001094953, No Iterations 4
DILUPBiCGStab:  Solving for ILambda_6_0, Initial residual = 0.03595908, Final residual = 0.002934594, No Iterations 2
DILUPBiCGStab:  Solving for ILambda_7_0, Initial residual = 0.01893134, Final residual = 0.001579271, No Iterations 3
DILUPBiCGStab:  Solving for ILambda_8_0, Initial residual = 0.01185934, Final residual = 7.60275e-18, No Iterations 1
DILUPBiCGStab:  Solving for ILambda_9_0, Initial residual = 0.02339949, Final residual = 1.757446e-17, No Iterations 1
DILUPBiCGStab:  Solving for ILambda_10_0, Initial residual = 0.02007438, Final residual = 2.250333e-17, No Iterations 1
DILUPBiCGStab:  Solving for ILambda_11_0, Initial residual = 0.01387427, Final residual = 3.320907e-17, No Iterations 1
DILUPBiCGStab:  Solving for ILambda_12_0, Initial residual = 0.01530411, Final residual = 0.001257878, No Iterations 3
DILUPBiCGStab:  Solving for ILambda_13_0, Initial residual = 0.02617249, Final residual = 0.001416965, No Iterations 7
DILUPBiCGStab:  Solving for ILambda_14_0, Initial residual = 0.0361162, Final residual = 0.002959826, No Iterations 5
DILUPBiCGStab:  Solving for ILambda_15_0, Initial residual = 0.03292641, Final residual = 0.003127775, No Iterations 5
Radiation solver iter: 8
DILUPBiCGStab:  Solving for ILambda_0_0, Initial residual = 0.03100438, Final residual = 3.204565e-17, No Iterations 1
DILUPBiCGStab:  Solving for ILambda_1_0, Initial residual = 0.02684698, Final residual = 1.401152e-17, No Iterations 1
[...]
DILUPBiCGStab:  Solving for ILambda_3_0, Initial residual = 0.02785, Final residual = 2.410172e-17, No Iterations 1
DILUPBiCGStab:  Solving for ILambda_4_0, Initial residual = 0.02733395, Final residual = 0.002395335, No Iterations 2
DILUPBiCGStab:  Solving for ILambda_5_0, Initial residual = 0.09751321, Final residual = 0.008930791, No Iterations 5
DILUPBiCGStab:  Solving for ILambda_6_0, Initial residual = 0.1214264, Final residual = 0.004798818, No Iterations 5
DILUPBiCGStab:  Solving for ILambda_7_0, Initial residual = 0.09839623, Final residual = 0.007998002, No Iterations 4
DILUPBiCGStab:  Solving for ILambda_8_0, Initial residual = 0.04555797, Final residual = 3.477048e-17, No Iterations 1
DILUPBiCGStab:  Solving for ILambda_9_0, Initial residual = 0.08423062, Final residual = 6.852638e-17, No Iterations 1
DILUPBiCGStab:  Solving for ILambda_10_0, Initial residual = 0.0958339, Final residual = 9.682829e-17, No Iterations 1
DILUPBiCGStab:  Solving for ILambda_11_0, Initial residual = 0.065668, Final residual = 1.201841e-16, No Iterations 1
DILUPBiCGStab:  Solving for ILambda_12_0, Initial residual = 0.07439973, Final residual = 0.00587748, No Iterations 3
DILUPBiCGStab:  Solving for ILambda_13_0, Initial residual = 0.1235474, Final residual = 0.007853365, No Iterations 6
DILUPBiCGStab:  Solving for ILambda_14_0, Initial residual = 0.1162494, Final residual = 0.006752358, No Iterations 11
DILUPBiCGStab:  Solving for ILambda_15_0, Initial residual = 0.1013339, Final residual = 0.008822996, No Iterations 9
Radiation solver iter: 5
DILUPBiCGStab:  Solving for ILambda_0_0, Initial residual = 0.1031157, Final residual = 1.303496e-16, No Iterations 1
DILUPBiCGStab:  Solving for ILambda_1_0, Initial residual = 0.08924489, Final residual = 7.086164e-17, No Iterations 1
DILUPBiCGStab:  Solving for ILambda_2_0, Initial residual = 0.06263518, Final residual = 5.31761e-17, No Iterations 1
DILUPBiCGStab:  Solving for ILambda_3_0, Initial residual = 0.01171175, Final residual = 7.930003e-18, No Iterations 1
DILUPBiCGStab:  Solving for ILambda_4_0, Initial residual = 0.01168852, Final residual = 0.0007779217, No Iterations 2
DILUPBiCGStab:  Solving for ILambda_5_0, Initial residual = 0.06415561, Final residual = 0.006016634, No Iterations 3
DILUPBiCGStab:  Solving for ILambda_6_0, Initial residual = 0.09399442, Final residual = 0.006497821, No Iterations 5
DILUPBiCGStab:  Solving for ILambda_7_0, Initial residual = 0.07727966, Final residual = 0.003454612, No Iterations 5
DILUPBiCGStab:  Solving for ILambda_8_0, Initial residual = 0.04209741, Final residual = 3.004504e-17, No Iterations 1
DILUPBiCGStab:  Solving for ILambda_9_0, Initial residual = 0.07611647, Final residual = 6.299581e-17, No Iterations 1
DILUPBiCGStab:  Solving for ILambda_10_0, Initial residual = 0.0770854, Final residual = 7.897704e-17, No Iterations 1
DILUPBiCGStab:  Solving for ILambda_11_0, Initial residual = 0.05255587, Final residual = 1.206728e-16, No Iterations 1
DILUPBiCGStab:  Solving for ILambda_12_0, Initial residual = 0.06234063, Final residual = 0.004133725, No Iterations 3
DILUPBiCGStab:  Solving for ILambda_13_0, Initial residual = 0.0973753, Final residual = 0.003762652, No Iterations 7
DILUPBiCGStab:  Solving for ILambda_14_0, Initial residual = 0.1041167, Final residual = 0.0100952, No Iterations 6
DILUPBiCGStab:  Solving for ILambda_15_0, Initial residual = 0.0938179, Final residual = 0.007056067, No Iterations 8
Radiation solver iter: 6
DILUPBiCGStab:  Solving for ILambda_0_0, Initial residual = 0.08464401, Final residual = 1.006482e-16, No Iterations 1
DILUPBiCGStab:  Solving for ILambda_1_0, Initial residual = 0.06905525, Final residual = 4.361877e-17, No Iterations 1
DILUPBiCGStab:  Solving for ILambda_2_0, Initial residual = 0.0419911, Final residual = 2.651574e-17, No Iterations 1
DILUPBiCGStab:  Solving for ILambda_3_0, Initial residual = 0.004654953, Final residual = 2.42793e-18, No Iterations 1
DILUPBiCGStab:  Solving for ILambda_4_0, Initial residual = 0.00450861, Final residual = 0.0002575684, No Iterations 2
DILUPBiCGStab:  Solving for ILambda_5_0, Initial residual = 0.04278574, Final residual = 0.003883025, No Iterations 3
DILUPBiCGStab:  Solving for ILambda_6_0, Initial residual = 0.0716055, Final residual = 0.005200144, No Iterations 3
DILUPBiCGStab:  Solving for ILambda_7_0, Initial residual = 0.06097821, Final residual = 0.005540696, No Iterations 4
DILUPBiCGStab:  Solving for ILambda_8_0, Initial residual = 0.03892191, Final residual = 2.547046e-17, No Iterations 1
DILUPBiCGStab:  Solving for ILambda_9_0, Initial residual = 0.06830807, Final residual = 5.94752e-17, No Iterations 1
DILUPBiCGStab:  Solving for ILambda_10_0, Initial residual = 0.06380091, Final residual = 7.030746e-17, No Iterations 1
DILUPBiCGStab:  Solving for ILambda_11_0, Initial residual = 0.04961893, Final residual = 1.166372e-16, No Iterations 1
DILUPBiCGStab:  Solving for ILambda_12_0, Initial residual = 0.05678347, Final residual = 0.004995252, No Iterations 3
DILUPBiCGStab:  Solving for ILambda_13_0, Initial residual = 0.07907028, Final residual = 0.005216597, No Iterations 8
DILUPBiCGStab:  Solving for ILambda_14_0, Initial residual = 0.09421727, Final residual = 0.008512087, No Iterations 5
DILUPBiCGStab:  Solving for ILambda_15_0, Initial residual = 0.08646223, Final residual = 0.002572686, No Iterations 9
Radiation solver iter: 7
DILUPBiCGStab:  Solving for ILambda_0_0, Initial residual = 0.06824387, Final residual = 7.438568e-17, No Iterations 1
DILUPBiCGStab:  Solving for ILambda_1_0, Initial residual = 0.0529244, Final residual = 2.844323e-17, No Iterations 1
DILUPBiCGStab:  Solving for ILambda_2_0, Initial residual = 0.02694076, Final residual = 1.509462e-17, No Iterations 1
DILUPBiCGStab:  Solving for ILambda_3_0, Initial residual = 0.001687518, Final residual = 8.688068e-19, No Iterations 1
DILUPBiCGStab:  Solving for ILambda_4_0, Initial residual = 0.001662654, Final residual = 0.0001140752, No Iterations 2
DILUPBiCGStab:  Solving for ILambda_5_0, Initial residual = 0.02661172, Final residual = 0.002335531, No Iterations 3
DILUPBiCGStab:  Solving for ILambda_6_0, Initial residual = 0.05456124, Final residual = 0.00156638, No Iterations 4
DILUPBiCGStab:  Solving for ILambda_7_0, Initial residual = 0.04865708, Final residual = 0.002460638, No Iterations 5
DILUPBiCGStab:  Solving for ILambda_8_0, Initial residual = 0.03521305, Final residual = 2.207142e-17, No Iterations 1
DILUPBiCGStab:  Solving for ILambda_9_0, Initial residual = 0.06079369, Final residual = 4.422395e-17, No Iterations 1
DILUPBiCGStab:  Solving for ILambda_10_0, Initial residual = 0.05295567, Final residual = 5.862498e-17, No Iterations 1
DILUPBiCGStab:  Solving for ILambda_11_0, Initial residual = 0.04262318, Final residual = 1.004281e-16, No Iterations 1
DILUPBiCGStab:  Solving for ILambda_12_0, Initial residual = 0.04726949, Final residual = 0.003858739, No Iterations 3
DILUPBiCGStab:  Solving for ILambda_13_0, Initial residual = 0.06532173, Final residual = 0.005497357, No Iterations 7
DILUPBiCGStab:  Solving for ILambda_14_0, Initial residual = 0.08581963, Final residual = 0.007731437, No Iterations 4
DILUPBiCGStab:  Solving for ILambda_15_0, Initial residual = 0.07751832, Final residual = 0.005668433, No Iterations 6
Radiation solver iter: 8
DILUPBiCGStab:  Solving for ILambda_0_0, Initial residual = 0.05434886, Final residual = 5.535486e-17, No Iterations 1
DILUPBiCGStab:  Solving for ILambda_1_0, Initial residual = 0.04081034, Final residual = 2.010332e-17, No Iterations 1
DILUPBiCGStab:  Solving for ILambda_2_0, Initial residual = 0.01657745, Final residual = 7.88831e-18, No Iterations 1
DILUPBiCGStab:  Solving for ILambda_3_0, Initial residual = 0.0006524591, Final residual = 4.651339e-19, No Iterations 1
DILUPBiCGStab:  Solving for ILambda_4_0, Initial residual = 0.0006715251, Final residual = 8.288272e-05, No Iterations 2
DILUPBiCGStab:  Solving for ILambda_5_0, Initial residual = 0.01592775, Final residual = 0.0009431416, No Iterations 3
DILUPBiCGStab:  Solving for ILambda_6_0, Initial residual = 0.04190605, Final residual = 0.003556926, No Iterations 2
DILUPBiCGStab:  Solving for ILambda_7_0, Initial residual = 0.03796932, Final residual = 0.002767026, No Iterations 3
DILUPBiCGStab:  Solving for ILambda_8_0, Initial residual = 0.03065483, Final residual = 1.830665e-17, No Iterations 1
DILUPBiCGStab:  Solving for ILambda_9_0, Initial residual = 0.05342451, Final residual = 3.833247e-17, No Iterations 1
DILUPBiCGStab:  Solving for ILambda_10_0, Initial residual = 0.0436339, Final residual = 4.89444e-17, No Iterations 1
DILUPBiCGStab:  Solving for ILambda_11_0, Initial residual = 0.03275855, Final residual = 7.450482e-17, No Iterations 1
DILUPBiCGStab:  Solving for ILambda_12_0, Initial residual = 0.03559376, Final residual = 0.002678204, No Iterations 4
DILUPBiCGStab:  Solving for ILambda_13_0, Initial residual = 0.05446633, Final residual = 0.004702088, No Iterations 6
DILUPBiCGStab:  Solving for ILambda_14_0, Initial residual = 0.07687877, Final residual = 0.007283938, No Iterations 5
DILUPBiCGStab:  Solving for ILambda_15_0, Initial residual = 0.06824018, Final residual = 0.006074952, No Iterations 5
Radiation solver iter: 9
DILUPBiCGStab:  Solving for ILambda_0_0, Initial residual = 0.04314548, Final residual = 4.083471e-17, No Iterations 1
DILUPBiCGStab:  Solving for ILambda_1_0, Initial residual = 0.03189255, Final residual = 1.4252e-17, No Iterations 1
DILUPBiCGStab:  Solving for ILambda_2_0, Initial residual = 0.009869906, Final residual = 5.611649e-18, No Iterations 1
DILUPBiCGStab:  Solving for ILambda_5_0, Initial residual = 0.009327597, Final residual = 0.0007545792, No Iterations 2
DILUPBiCGStab:  Solving for ILambda_6_0, Initial residual = 0.03278498, Final residual = 0.001951917, No Iterations 3
DILUPBiCGStab:  Solving for ILambda_7_0, Initial residual = 0.03032837, Final residual = 0.0009196209, No Iterations 4
DILUPBiCGStab:  Solving for ILambda_8_0, Initial residual = 0.02630974, Final residual = 1.58036e-17, No Iterations 1
DILUPBiCGStab:  Solving for ILambda_9_0, Initial residual = 0.04665677, Final residual = 3.501754e-17, No Iterations 1
DILUPBiCGStab:  Solving for ILambda_10_0, Initial residual = 0.03608568, Final residual = 3.966974e-17, No Iterations 1
DILUPBiCGStab:  Solving for ILambda_11_0, Initial residual = 0.02388073, Final residual = 5.162336e-17, No Iterations 1
DILUPBiCGStab:  Solving for ILambda_12_0, Initial residual = 0.02752269, Final residual = 0.001042391, No Iterations 4
DILUPBiCGStab:  Solving for ILambda_13_0, Initial residual = 0.04577803, Final residual = 0.004162641, No Iterations 5
DILUPBiCGStab:  Solving for ILambda_14_0, Initial residual = 0.06812341, Final residual = 0.006064177, No Iterations 4
DILUPBiCGStab:  Solving for ILambda_15_0, Initial residual = 0.05861491, Final residual = 0.005781584, No Iterations 5
Radiation solver iter: 10
DILUPBiCGStab:  Solving for ILambda_0_0, Initial residual = 0.03425676, Final residual = 3.023676e-17, No Iterations 1
DILUPBiCGStab:  Solving for ILambda_1_0, Initial residual = 0.02523664, Final residual = 1.200615e-17, No Iterations 1
DILUPBiCGStab:  Solving for ILambda_2_0, Initial residual = 0.005746215, Final residual = 2.71174e-18, No Iterations 1
DILUPBiCGStab:  Solving for ILambda_5_0, Initial residual = 0.005283304, Final residual = 0.0001935092, No Iterations 4
DILUPBiCGStab:  Solving for ILambda_6_0, Initial residual = 0.02553305, Final residual = 0.001480917, No Iterations 3
DILUPBiCGStab:  Solving for ILambda_7_0, Initial residual = 0.02387477, Final residual = 0.001517565, No Iterations 2
DILUPBiCGStab:  Solving for ILambda_8_0, Initial residual = 0.02239811, Final residual = 1.377019e-17, No Iterations 1
DILUPBiCGStab:  Solving for ILambda_9_0, Initial residual = 0.04036359, Final residual = 2.931335e-17, No Iterations 1
DILUPBiCGStab:  Solving for ILambda_10_0, Initial residual = 0.02983501, Final residual = 3.061865e-17, No Iterations 1
DILUPBiCGStab:  Solving for ILambda_11_0, Initial residual = 0.0170963, Final residual = 3.687643e-17, No Iterations 1
DILUPBiCGStab:  Solving for ILambda_12_0, Initial residual = 0.0198315, Final residual = 0.0007145875, No Iterations 4
DILUPBiCGStab:  Solving for ILambda_13_0, Initial residual = 0.03832621, Final residual = 0.003256406, No Iterations 5
DILUPBiCGStab:  Solving for ILambda_14_0, Initial residual = 0.05936739, Final residual = 0.005881742, No Iterations 4
DILUPBiCGStab:  Solving for ILambda_15_0, Initial residual = 0.05019783, Final residual = 0.0006181282, No Iterations 9
Radiation solver iter: 11
DILUPBiCGStab:  Solving for ILambda_0_0, Initial residual = 0.02729826, Final residual = 2.359607e-17, No Iterations 1
DILUPBiCGStab:  Solving for ILambda_1_0, Initial residual = 0.02002788, Final residual = 8.855643e-18, No Iterations 1
DILUPBiCGStab:  Solving for ILambda_2_0, Initial residual = 0.00326514, Final residual = 1.352136e-18, No Iterations 1
DILUPBiCGStab:  Solving for ILambda_5_0, Initial residual = 0.002965677, Final residual = 0.0002951026, No Iterations 3
DILUPBiCGStab:  Solving for ILambda_6_0, Initial residual = 0.01985843, Final residual = 0.001169288, No Iterations 3
DILUPBiCGStab:  Solving for ILambda_7_0, Initial residual = 0.01933862, Final residual = 0.001174984, No Iterations 2
DILUPBiCGStab:  Solving for ILambda_8_0, Initial residual = 0.01907497, Final residual = 1.275295e-17, No Iterations 1
DILUPBiCGStab:  Solving for ILambda_9_0, Initial residual = 0.03449853, Final residual = 2.36445e-17, No Iterations 1
DILUPBiCGStab:  Solving for ILambda_10_0, Initial residual = 0.02442935, Final residual = 2.6186e-17, No Iterations 1
DILUPBiCGStab:  Solving for ILambda_11_0, Initial residual = 0.01244133, Final residual = 2.61645e-17, No Iterations 1
DILUPBiCGStab:  Solving for ILambda_12_0, Initial residual = 0.01419169, Final residual = 0.0004698636, No Iterations 4
DILUPBiCGStab:  Solving for ILambda_13_0, Initial residual = 0.03123026, Final residual = 0.002170043, No Iterations 5
DILUPBiCGStab:  Solving for ILambda_14_0, Initial residual = 0.05080229, Final residual = 0.005026956, No Iterations 4
DILUPBiCGStab:  Solving for ILambda_15_0, Initial residual = 0.04176065, Final residual = 0.003599427, No Iterations 3
Radiation solver iter: 12
DILUPBiCGStab:  Solving for ILambda_0_0, Initial residual = 0.02183623, Final residual = 1.923159e-17, No Iterations 1
DILUPBiCGStab:  Solving for ILambda_1_0, Initial residual = 0.0157178, Final residual = 7.106185e-18, No Iterations 1
DILUPBiCGStab:  Solving for ILambda_2_0, Initial residual = 0.001801323, Final residual = 7.330173e-19, No Iterations 1
DILUPBiCGStab:  Solving for ILambda_5_0, Initial residual = 0.001627007, Final residual = 0.0001086752, No Iterations 2
DILUPBiCGStab:  Solving for ILambda_6_0, Initial residual = 0.01523809, Final residual = 0.001078756, No Iterations 3
DILUPBiCGStab:  Solving for ILambda_7_0, Initial residual = 0.01578483, Final residual = 0.0009648105, No Iterations 2
DILUPBiCGStab:  Solving for ILambda_8_0, Initial residual = 0.01623371, Final residual = 1.007226e-17, No Iterations 1
DILUPBiCGStab:  Solving for ILambda_9_0, Initial residual = 0.02906108, Final residual = 2.17036e-17, No Iterations 1
DILUPBiCGStab:  Solving for ILambda_10_0, Initial residual = 0.01958056, Final residual = 1.88744e-17, No Iterations 1
DILUPBiCGStab:  Solving for ILambda_11_0, Initial residual = 0.009478362, Final residual = 2.011012e-17, No Iterations 1
DILUPBiCGStab:  Solving for ILambda_12_0, Initial residual = 0.01076199, Final residual = 0.001010389, No Iterations 3
DILUPBiCGStab:  Solving for ILambda_13_0, Initial residual = 0.02478367, Final residual = 0.002190715, No Iterations 4
DILUPBiCGStab:  Solving for ILambda_14_0, Initial residual = 0.04282005, Final residual = 0.002401395, No Iterations 5
DILUPBiCGStab:  Solving for ILambda_15_0, Initial residual = 0.03552428, Final residual = 0.002383237, No Iterations 4
Radiation solver iter: 13
DILUPBiCGStab:  Solving for ILambda_0_0, Initial residual = 0.01755526, Final residual = 1.292199e-17, No Iterations 1
DILUPBiCGStab:  Solving for ILambda_1_0, Initial residual = 0.01212969, Final residual = 4.43681e-18, No Iterations 1
DILUPBiCGStab:  Solving for ILambda_2_0, Initial residual = 0.0009706003, Final residual = 3.245952e-19, No Iterations 1
DILUPBiCGStab:  Solving for ILambda_5_0, Initial residual = 0.0008765166, Final residual = 6.602863e-05, No Iterations 2
DILUPBiCGStab:  Solving for ILambda_6_0, Initial residual = 0.01150386, Final residual = 0.0001550925, No Iterations 5
DILUPBiCGStab:  Solving for ILambda_7_0, Initial residual = 0.01296126, Final residual = 0.001293472, No Iterations 2
DILUPBiCGStab:  Solving for ILambda_8_0, Initial residual = 0.01381705, Final residual = 8.364931e-18, No Iterations 1
DILUPBiCGStab:  Solving for ILambda_9_0, Initial residual = 0.02418945, Final residual = 1.544543e-17, No Iterations 1
DILUPBiCGStab:  Solving for ILambda_10_0, Initial residual = 0.0153838, Final residual = 1.445231e-17, No Iterations 1
DILUPBiCGStab:  Solving for ILambda_11_0, Initial residual = 0.007694863, Final residual = 1.61167e-17, No Iterations 1
DILUPBiCGStab:  Solving for ILambda_12_0, Initial residual = 0.008834927, Final residual = 0.0005642118, No Iterations 3
DILUPBiCGStab:  Solving for ILambda_13_0, Initial residual = 0.01958184, Final residual = 0.001793847, No Iterations 4
DILUPBiCGStab:  Solving for ILambda_14_0, Initial residual = 0.03546016, Final residual = 0.003191015, No Iterations 4
DILUPBiCGStab:  Solving for ILambda_15_0, Initial residual = 0.02995413, Final residual = 0.00285283, No Iterations 4
Radiation solver iter: 14
DILUPBiCGStab:  Solving for ILambda_0_0, Initial residual = 0.01415809, Final residual = 9.812923e-18, No Iterations 1
DILUPBiCGStab:  Solving for ILambda_1_0, Initial residual = 0.009137451, Final residual = 3.160903e-18, No Iterations 1
DILUPBiCGStab:  Solving for ILambda_6_0, Initial residual = 0.008464643, Final residual = 0.000747148, No Iterations 2
DILUPBiCGStab:  Solving for ILambda_7_0, Initial residual = 0.01071316, Final residual = 0.000698808, No Iterations 2
DILUPBiCGStab:  Solving for ILambda_8_0, Initial residual = 0.01169421, Final residual = 6.854087e-18, No Iterations 1
DILUPBiCGStab:  Solving for ILambda_9_0, Initial residual = 0.01991619, Final residual = 1.182104e-17, No Iterations 1
DILUPBiCGStab:  Solving for ILambda_10_0, Initial residual = 0.01189241, Final residual = 1.019374e-17, No Iterations 1
DILUPBiCGStab:  Solving for ILambda_11_0, Initial residual = 0.0064963, Final residual = 1.439169e-17, No Iterations 1
DILUPBiCGStab:  Solving for ILambda_12_0, Initial residual = 0.007393927, Final residual = 0.0006231454, No Iterations 3
DILUPBiCGStab:  Solving for ILambda_13_0, Initial residual = 0.01525834, Final residual = 0.001302496, No Iterations 5
DILUPBiCGStab:  Solving for ILambda_14_0, Initial residual = 0.02932129, Final residual = 0.002737423, No Iterations 3
DILUPBiCGStab:  Solving for ILambda_15_0, Initial residual = 0.02531341, Final residual = 0.001662526, No Iterations 4
GAMG:  Solving for p_rgh, Initial residual = 0.0005207441, Final residual = 1.596039e-06, No Iterations 2
limitVelocity limitU Limited 0 (0%) of cells, with max limit 5
time step continuity errors : sum local = 7.802526e-06, global = 1.213022e-17, cumulative = 4.068598e-15
rho min/max : 0.4734199 0.9439633
DILUPBiCGStab:  Solving for omega, Initial residual = 0.0001861417, Final residual = 4.811644e-06, No Iterations 1
DILUPBiCGStab:  Solving for k, Initial residual = 0.0001473278, Final residual = 7.610362e-06, No Iterations 1
ExecutionTime = 49.3 s  ClockTime = 49 s

surfaceFieldValue wallT write:
    areaAverage(plate) of T = 612.6284

surfaceFieldValue wallTriser write:
    areaAverage(riser) of T = 394.784

End

