/*---------------------------------------------------------------------------*\
| =========                 |                                                 |
| \\      /  F ield         | OpenFOAM: The Open Source CFD Toolbox           |
|  \\    /   O peration     | Version:  2312                                  |
|   \\  /    A nd           | Website:  www.openfoam.com                      |
|    \\/     M anipulation  |                                                 |
\*---------------------------------------------------------------------------*/
Build  : _c39a0f64-20231220 OPENFOAM=2312 version=2312
Arch   : "LSB;label=32;scalar=64"
Exec   : buoyantSimpleFoam
Date   : Jul 02 2026
Time   : 08:25:36
Host   : 117b01c9c57a
PID    : 245
I/O    : uncollated
Case   : /case
nProcs : 1
trapFpe: Floating point exception trapping enabled (FOAM_SIGFPE).
fileModificationChecking : Monitoring run-time modified files using timeStampMaster (fileModificationSkew 5, maxFileModificationPolls 20)
allowSystemOperations : Allowing user-supplied system call operations

// * * * * * * * * * * * * * * * * * * * * * * * * * * * * * * * * * * * * * //
Create time

Create mesh for time = 0


SIMPLE: convergence criteria
    field p_rgh	 tolerance 0.0001
    field U	 tolerance 0.0001
    field h	 tolerance 0.0001
    field "(k|omega)"	 tolerance 0.001

Reading thermophysical properties

Selecting thermodynamics package 
{
    type            heRhoThermo;
    mixture         pureMixture;
    transport       const;
    thermo          hConst;
    equationOfState perfectGas;
    specie          specie;
    energy          sensibleEnthalpy;
}

Reading field U

Reading/calculating face flux field phi

Creating turbulence model

Selecting turbulence model type RAS
Selecting RAS turbulence model kOmegaSST
Selecting patchDistMethod meshWave
RAS
{
    RASModel        kOmegaSST;
    turbulence      on;
    printCoeffs     on;
    alphaK1         0.85;
    alphaK2         1;
    alphaOmega1     0.5;
    alphaOmega2     0.856;
    gamma1          0.5555556;
    gamma2          0.44;
    beta1           0.075;
    beta2           0.0828;
    betaStar        0.09;
    a1              0.31;
    b1              1;
    c1              10;
    F3              false;
    decayControl    false;
    kInf            0;
    omegaInf        0;
}


Reading g

Reading hRef
Calculating field g.h

Reading field p_rgh

No MRF models present

Selecting radiationModel fvDOM
Selecting absorptionEmissionModel constantAbsorptionEmission
Selecting scatterModel none
Selecting sootModel none
fvDOM : Allocated 16 rays with average orientation:
	I0 : dAve : 	(0.1195698 0.6011177 2.944771e-33) : omega : 	0.7853982 : d : 	(0.1950903 0.9807853 6.123234e-17)
	I1 : dAve : 	(0.3405058 0.509603 2.944771e-33) : omega : 	0.7853982 : d : 	(0.5555702 0.8314696 6.123234e-17)
	I2 : dAve : 	(0.509603 0.3405058 2.944771e-33) : omega : 	0.7853982 : d : 	(0.8314696 0.5555702 6.123234e-17)
	I3 : dAve : 	(0.6011177 0.1195698 2.944771e-33) : omega : 	0.7853982 : d : 	(0.9807853 0.1950903 6.123234e-17)
	I4 : dAve : 	(0.6011177 -0.1195698 2.944771e-33) : omega : 	0.7853982 : d : 	(0.9807853 -0.1950903 6.123234e-17)
	I5 : dAve : 	(0.509603 -0.3405058 2.944771e-33) : omega : 	0.7853982 : d : 	(0.8314696 -0.5555702 6.123234e-17)
	I6 : dAve : 	(0.3405058 -0.509603 2.944771e-33) : omega : 	0.7853982 : d : 	(0.5555702 -0.8314696 6.123234e-17)
	I7 : dAve : 	(0.1195698 -0.6011177 2.944771e-33) : omega : 	0.7853982 : d : 	(0.1950903 -0.9807853 6.123234e-17)
	I8 : dAve : 	(-0.1195698 -0.6011177 2.944771e-33) : omega : 	0.7853982 : d : 	(-0.1950903 -0.9807853 6.123234e-17)
	I9 : dAve : 	(-0.3405058 -0.509603 2.944771e-33) : omega : 	0.7853982 : d : 	(-0.5555702 -0.8314696 6.123234e-17)
	I10 : dAve : 	(-0.509603 -0.3405058 2.944771e-33) : omega : 	0.7853982 : d : 	(-0.8314696 -0.5555702 6.123234e-17)
	I11 : dAve : 	(-0.6011177 -0.1195698 2.944771e-33) : omega : 	0.7853982 : d : 	(-0.9807853 -0.1950903 6.123234e-17)
	I12 : dAve : 	(-0.6011177 0.1195698 2.944771e-33) : omega : 	0.7853982 : d : 	(-0.9807853 0.1950903 6.123234e-17)
	I13 : dAve : 	(-0.509603 0.3405058 2.944771e-33) : omega : 	0.7853982 : d : 	(-0.8314696 0.5555702 6.123234e-17)
	I14 : dAve : 	(-0.3405058 0.509603 2.944771e-33) : omega : 	0.7853982 : d : 	(-0.5555702 0.8314696 6.123234e-17)
	I15 : dAve : 	(-0.1195698 0.6011177 2.944771e-33) : omega : 	0.7853982 : d : 	(-0.1950903 0.9807853 6.123234e-17)
Total omega : 12.56637

Creating finite volume options from "system/fvOptions"

Selecting finite volume options type limitTemperature
    Source: limitT
    - selecting all cells
    - selected 12000 cell(s) with volume 0.473422

Starting time loop

surfaceFieldValue wallT:
    operation     = areaAverage


surfaceFieldValue wallTriser:
    operation     = areaAverage


Time = 1

DILUPBiCGStab:  Solving for h, Initial residual = 1, Final residual = 0.003201126, No Iterations 1
limitTemperature limitT Lower limited 0 (0%) of cells, with min limit 250
limitTemperature limitT Upper limited 0 (0%) of cells, with max limit 1400
limitTemperature limitT Unlimited Tmin 450
limitTemperature limitT Unlimited Tmax 450
Radiation solver iter: 0
Selecting boundary radiation Model: lookup
Selecting boundary radiation Model: lookup
Selecting boundary radiation Model: lookup
DILUPBiCGStab:  Solving for ILambda_0_0, Initial residual = 1, Final residual = 9.268244e-15, No Iterations 1
DILUPBiCGStab:  Solving for ILambda_1_0, Initial residual = 1, Final residual = 7.170178e-15, No Iterations 1
DILUPBiCGStab:  Solving for ILambda_2_0, Initial residual = 1, Final residual = 5.972945e-15, No Iterations 1
DILUPBiCGStab:  Solving for ILambda_3_0, Initial residual = 1, Final residual = 6.093823e-15, No Iterations 1
DILUPBiCGStab:  Solving for ILambda_4_0, Initial residual = 1, Final residual = 0.05106257, No Iterations 4
DILUPBiCGStab:  Solving for ILambda_5_0, Initial residual = 1, Final residual = 0.06859918, No Iterations 10
DILUPBiCGStab:  Solving for ILambda_6_0, Initial residual = 1, Final residual = 0.0375894, No Iterations 18
DILUPBiCGStab:  Solving for ILambda_7_0, Initial residual = 1, Final residual = 0.03385478, No Iterations 38
DILUPBiCGStab:  Solving for ILambda_8_0, Initial residual = 1, Final residual = 9.380224e-15, No Iterations 1
DILUPBiCGStab:  Solving for ILambda_9_0, Initial residual = 1, Final residual = 6.137275e-15, No Iterations 1
DILUPBiCGStab:  Solving for ILambda_10_0, Initial residual = 1, Final residual = 5.068598e-15, No Iterations 1
DILUPBiCGStab:  Solving for ILambda_11_0, Initial residual = 1, Final residual = 4.144284e-15, No Iterations 1
DILUPBiCGStab:  Solving for ILambda_12_0, Initial residual = 1, Final residual = 0.05311121, No Iterations 4
DILUPBiCGStab:  Solving for ILambda_13_0, Initial residual = 1, Final residual = 0.06735055, No Iterations 10
DILUPBiCGStab:  Solving for ILambda_14_0, Initial residual = 1, Final residual = 0.001589365, No Iterations 18
DILUPBiCGStab:  Solving for ILambda_15_0, Initial residual = 1, Final residual = 0.01042203, No Iterations 36
Radiation solver iter: 1
DILUPBiCGStab:  Solving for ILambda_0_0, Initial residual = 0.1440945, Final residual = 9.479637e-16, No Iterations 1
DILUPBiCGStab:  Solving for ILambda_1_0, Initial residual = 0.2333271, Final residual = 1.333465e-15, No Iterations 1
DILUPBiCGStab:  Solving for ILambda_2_0, Initial residual = 0.3508395, Final residual = 1.997889e-15, No Iterations 1
DILUPBiCGStab:  Solving for ILambda_3_0, Initial residual = 0.5569295, Final residual = 2.882972e-15, No Iterations 1
DILUPBiCGStab:  Solving for ILambda_4_0, Initial residual = 0.7553416, Final residual = 0.04086935, No Iterations 4
DILUPBiCGStab:  Solving for ILambda_5_0, Initial residual = 0.4927742, Final residual = 0.02811004, No Iterations 7
DILUPBiCGStab:  Solving for ILambda_6_0, Initial residual = 0.2812346, Final residual = 0.005860546, No Iterations 12
DILUPBiCGStab:  Solving for ILambda_7_0, Initial residual = 0.1521965, Final residual = 0.01475229, No Iterations 18
DILUPBiCGStab:  Solving for ILambda_8_0, Initial residual = 0.5200004, Final residual = 4.152576e-15, No Iterations 1
DILUPBiCGStab:  Solving for ILambda_9_0, Initial residual = 0.5008557, Final residual = 3.021116e-15, No Iterations 1
DILUPBiCGStab:  Solving for ILambda_10_0, Initial residual = 0.4786275, Final residual = 2.573466e-15, No Iterations 1
DILUPBiCGStab:  Solving for ILambda_11_0, Initial residual = 0.4528546, Final residual = 2.422414e-15, No Iterations 1
DILUPBiCGStab:  Solving for ILambda_12_0, Initial residual = 0.6675877, Final residual = 0.0601274, No Iterations 3
DILUPBiCGStab:  Solving for ILambda_13_0, Initial residual = 0.6294982, Final residual = 0.02838854, No Iterations 7
DILUPBiCGStab:  Solving for ILambda_14_0, Initial residual = 0.4917509, Final residual = 0.02964758, No Iterations 12
DILUPBiCGStab:  Solving for ILambda_15_0, Initial residual = 0.5374158, Final residual = 0.04531824, No Iterations 18
Radiation solver iter: 2
DILUPBiCGStab:  Solving for ILambda_0_0, Initial residual = 0.04462571, Final residual = 1.198531e-16, No Iterations 1
DILUPBiCGStab:  Solving for ILambda_1_0, Initial residual = 0.05276669, Final residual = 1.151497e-16, No Iterations 1
DILUPBiCGStab:  Solving for ILambda_2_0, Initial residual = 0.0652827, Final residual = 1.342238e-16, No Iterations 1
DILUPBiCGStab:  Solving for ILambda_3_0, Initial residual = 0.08683739, Final residual = 2.213268e-16, No Iterations 1
DILUPBiCGStab:  Solving for ILambda_4_0, Initial residual = 0.2050196, Final residual = 0.01921302, No Iterations 3
DILUPBiCGStab:  Solving for ILambda_5_0, Initial residual = 0.1520006, Final residual = 0.01435207, No Iterations 4
DILUPBiCGStab:  Solving for ILambda_6_0, Initial residual = 0.06533378, Final residual = 0.005850298, No Iterations 8
DILUPBiCGStab:  Solving for ILambda_7_0, Initial residual = 0.05349884, Final residual = 0.005052277, No Iterations 13
DILUPBiCGStab:  Solving for ILambda_8_0, Initial residual = 0.09103127, Final residual = 2.366598e-16, No Iterations 1
DILUPBiCGStab:  Solving for ILambda_9_0, Initial residual = 0.07476649, Final residual = 1.385829e-16, No Iterations 1
DILUPBiCGStab:  Solving for ILambda_10_0, Initial residual = 0.06068122, Final residual = 1.28209e-16, No Iterations 1
DILUPBiCGStab:  Solving for ILambda_11_0, Initial residual = 0.04278794, Final residual = 1.160417e-16, No Iterations 1
DILUPBiCGStab:  Solving for ILambda_12_0, Initial residual = 0.1639977, Final residual = 0.01248325, No Iterations 2
DILUPBiCGStab:  Solving for ILambda_13_0, Initial residual = 0.1792063, Final residual = 0.01668098, No Iterations 5
DILUPBiCGStab:  Solving for ILambda_14_0, Initial residual = 0.09917097, Final residual = 0.004693314, No Iterations 12
DILUPBiCGStab:  Solving for ILambda_15_0, Initial residual = 0.125106, Final residual = 0.01125534, No Iterations 11
Radiation solver iter: 3
DILUPBiCGStab:  Solving for ILambda_0_0, Initial residual = 0.03317005, Final residual = 6.275068e-17, No Iterations 1
DILUPBiCGStab:  Solving for ILambda_1_0, Initial residual = 0.03480794, Final residual = 4.280351e-17, No Iterations 1
DILUPBiCGStab:  Solving for ILambda_2_0, Initial residual = 0.03517428, Final residual = 3.743147e-17, No Iterations 1
DILUPBiCGStab:  Solving for ILambda_3_0, Initial residual = 0.02449271, Final residual = 3.106438e-17, No Iterations 1
DILUPBiCGStab:  Solving for ILambda_4_0, Initial residual = 0.04206818, Final residual = 0.002238606, No Iterations 3
DILUPBiCGStab:  Solving for ILambda_5_0, Initial residual = 0.05913695, Final residual = 0.005114397, No Iterations 4
DILUPBiCGStab:  Solving for ILambda_6_0, Initial residual = 0.0394883, Final residual = 0.003383883, No Iterations 5
DILUPBiCGStab:  Solving for ILambda_7_0, Initial residual = 0.03702941, Final residual = 0.003315617, No Iterations 8
DILUPBiCGStab:  Solving for ILambda_8_0, Initial residual = 0.06765919, Final residual = 1.191552e-16, No Iterations 1
DILUPBiCGStab:  Solving for ILambda_9_0, Initial residual = 0.05808827, Final residual = 8.908848e-17, No Iterations 1
DILUPBiCGStab:  Solving for ILambda_10_0, Initial residual = 0.04705772, Final residual = 8.937746e-17, No Iterations 1
DILUPBiCGStab:  Solving for ILambda_11_0, Initial residual = 0.03003861, Final residual = 7.868951e-17, No Iterations 1
DILUPBiCGStab:  Solving for ILambda_12_0, Initial residual = 0.05253222, Final residual = 0.004778678, No Iterations 3
DILUPBiCGStab:  Solving for ILambda_13_0, Initial residual = 0.07761172, Final residual = 0.003787405, No Iterations 7
DILUPBiCGStab:  Solving for ILambda_14_0, Initial residual = 0.06112402, Final residual = 0.004588244, No Iterations 13
DILUPBiCGStab:  Solving for ILambda_15_0, Initial residual = 0.07744063, Final residual = 0.006799531, No Iterations 10
Radiation solver iter: 4
DILUPBiCGStab:  Solving for ILambda_0_0, Initial residual = 0.02783148, Final residual = 4.259522e-17, No Iterations 1
DILUPBiCGStab:  Solving for ILambda_1_0, Initial residual = 0.02739502, Final residual = 2.679927e-17, No Iterations 1
DILUPBiCGStab:  Solving for ILambda_2_0, Initial residual = 0.02373603, Final residual = 1.920482e-17, No Iterations 1
DILUPBiCGStab:  Solving for ILambda_3_0, Initial residual = 0.01072664, Final residual = 1.082763e-17, No Iterations 1
DILUPBiCGStab:  Solving for ILambda_4_0, Initial residual = 0.01286622, Final residual = 0.0008468052, No Iterations 2
DILUPBiCGStab:  Solving for ILambda_5_0, Initial residual = 0.02979544, Final residual = 0.001821258, No Iterations 3
DILUPBiCGStab:  Solving for ILambda_6_0, Initial residual = 0.02883905, Final residual = 0.002578366, No Iterations 4
DILUPBiCGStab:  Solving for ILambda_7_0, Initial residual = 0.02989971, Final residual = 0.00295212, No Iterations 6
DILUPBiCGStab:  Solving for ILambda_8_0, Initial residual = 0.05577796, Final residual = 8.703573e-17, No Iterations 1
DILUPBiCGStab:  Solving for ILambda_9_0, Initial residual = 0.04587469, Final residual = 5.7999e-17, No Iterations 1
DILUPBiCGStab:  Solving for ILambda_10_0, Initial residual = 0.03423929, Final residual = 6.020414e-17, No Iterations 1
DILUPBiCGStab:  Solving for ILambda_11_0, Initial residual = 0.01793414, Final residual = 4.499605e-17, No Iterations 1
DILUPBiCGStab:  Solving for ILambda_12_0, Initial residual = 0.02298845, Final residual = 0.001186389, No Iterations 4
DILUPBiCGStab:  Solving for ILambda_13_0, Initial residual = 0.04108746, Final residual = 0.001491889, No Iterations 7
DILUPBiCGStab:  Solving for ILambda_14_0, Initial residual = 0.04772289, Final residual = 0.003964087, No Iterations 9
DILUPBiCGStab:  Solving for ILambda_15_0, Initial residual = 0.05958769, Final residual = 0.005829839, No Iterations 6
Radiation solver iter: 5
DILUPBiCGStab:  Solving for ILambda_0_0, Initial residual = 0.02377648, Final residual = 3.043033e-17, No Iterations 1
DILUPBiCGStab:  Solving for ILambda_1_0, Initial residual = 0.02206186, Final residual = 2.004252e-17, No Iterations 1
DILUPBiCGStab:  Solving for ILambda_2_0, Initial residual = 0.01625389, Final residual = 1.133535e-17, No Iterations 1
DILUPBiCGStab:  Solving for ILambda_3_0, Initial residual = 0.004216656, Final residual = 4.087658e-18, No Iterations 1
DILUPBiCGStab:  Solving for ILambda_4_0, Initial residual = 0.004480253, Final residual = 0.0002432569, No Iterations 2
DILUPBiCGStab:  Solving for ILambda_5_0, Initial residual = 0.01732537, Final residual = 0.001719306, No Iterations 3
DILUPBiCGStab:  Solving for ILambda_6_0, Initial residual = 0.02304811, Final residual = 0.001884803, No Iterations 3
DILUPBiCGStab:  Solving for ILambda_7_0, Initial residual = 0.02523024, Final residual = 0.002367124, No Iterations 5
DILUPBiCGStab:  Solving for ILambda_8_0, Initial residual = 0.04685494, Final residual = 5.964179e-17, No Iterations 1
DILUPBiCGStab:  Solving for ILambda_9_0, Initial residual = 0.03725867, Final residual = 4.268718e-17, No Iterations 1
DILUPBiCGStab:  Solving for ILambda_10_0, Initial residual = 0.02502297, Final residual = 3.995266e-17, No Iterations 1
DILUPBiCGStab:  Solving for ILambda_11_0, Initial residual = 0.01134063, Final residual = 2.953191e-17, No Iterations 1
DILUPBiCGStab:  Solving for ILambda_12_0, Initial residual = 0.01228689, Final residual = 0.0009878089, No Iterations 4
DILUPBiCGStab:  Solving for ILambda_13_0, Initial residual = 0.02503785, Final residual = 0.002413312, No Iterations 6
DILUPBiCGStab:  Solving for ILambda_14_0, Initial residual = 0.03822843, Final residual = 0.003530406, No Iterations 9
DILUPBiCGStab:  Solving for ILambda_15_0, Initial residual = 0.04907463, Final residual = 0.004851691, No Iterations 6
Radiation solver iter: 6
DILUPBiCGStab:  Solving for ILambda_0_0, Initial residual = 0.02052178, Final residual = 2.355706e-17, No Iterations 1
DILUPBiCGStab:  Solving for ILambda_1_0, Initial residual = 0.01784978, Final residual = 1.386626e-17, No Iterations 1
DILUPBiCGStab:  Solving for ILambda_2_0, Initial residual = 0.01112906, Final residual = 7.396449e-18, No Iterations 1
DILUPBiCGStab:  Solving for ILambda_3_0, Initial residual = 0.001720726, Final residual = 1.560677e-18, No Iterations 1
DILUPBiCGStab:  Solving for ILambda_4_0, Initial residual = 0.001843516, Final residual = 0.0001302767, No Iterations 2
DILUPBiCGStab:  Solving for ILambda_5_0, Initial residual = 0.01142735, Final residual = 0.0002852008, No Iterations 4
DILUPBiCGStab:  Solving for ILambda_6_0, Initial residual = 0.0184037, Final residual = 0.001577298, No Iterations 3
DILUPBiCGStab:  Solving for ILambda_7_0, Initial residual = 0.02167441, Final residual = 0.002096232, No Iterations 5
DILUPBiCGStab:  Solving for ILambda_8_0, Initial residual = 0.03969955, Final residual = 4.495973e-17, No Iterations 1
DILUPBiCGStab:  Solving for ILambda_9_0, Initial residual = 0.03058463, Final residual = 3.201597e-17, No Iterations 1
DILUPBiCGStab:  Solving for ILambda_10_0, Initial residual = 0.01820669, Final residual = 2.633928e-17, No Iterations 1
DILUPBiCGStab:  Solving for ILambda_11_0, Initial residual = 0.007898746, Final residual = 2.095878e-17, No Iterations 1
DILUPBiCGStab:  Solving for ILambda_12_0, Initial residual = 0.007716126, Final residual = 0.0006736991, No Iterations 3
DILUPBiCGStab:  Solving for ILambda_13_0, Initial residual = 0.01813868, Final residual = 0.001576373, No Iterations 6
DILUPBiCGStab:  Solving for ILambda_14_0, Initial residual = 0.03164292, Final residual = 0.002942806, No Iterations 11
DILUPBiCGStab:  Solving for ILambda_15_0, Initial residual = 0.04185985, Final residual = 0.003796145, No Iterations 6
Radiation solver iter: 7
DILUPBiCGStab:  Solving for ILambda_0_0, Initial residual = 0.01774027, Final residual = 1.839258e-17, No Iterations 1
DILUPBiCGStab:  Solving for ILambda_1_0, Initial residual = 0.01438781, Final residual = 1.023248e-17, No Iterations 1
DILUPBiCGStab:  Solving for ILambda_2_0, Initial residual = 0.007416823, Final residual = 4.126354e-18, No Iterations 1
DILUPBiCGStab:  Solving for ILambda_3_0, Initial residual = 0.0007566554, Final residual = 9.275454e-19, No Iterations 1
DILUPBiCGStab:  Solving for ILambda_4_0, Initial residual = 0.0008594795, Final residual = 9.816596e-05, No Iterations 2
DILUPBiCGStab:  Solving for ILambda_5_0, Initial residual = 0.007379298, Final residual = 0.000560303, No Iterations 3
DILUPBiCGStab:  Solving for ILambda_6_0, Initial residual = 0.01476219, Final residual = 0.001382986, No Iterations 2
DILUPBiCGStab:  Solving for ILambda_7_0, Initial residual = 0.01891596, Final residual = 0.001408157, No Iterations 4
DILUPBiCGStab:  Solving for ILambda_8_0, Initial residual = 0.03400917, Final residual = 3.560928e-17, No Iterations 1
DILUPBiCGStab:  Solving for ILambda_9_0, Initial residual = 0.02535628, Final residual = 2.461307e-17, No Iterations 1
DILUPBiCGStab:  Solving for ILambda_10_0, Initial residual = 0.01353081, Final residual = 1.877034e-17, No Iterations 1
DILUPBiCGStab:  Solving for ILambda_11_0, Initial residual = 0.006032582, Final residual = 1.662359e-17, No Iterations 1
DILUPBiCGStab:  Solving for ILambda_12_0, Initial residual = 0.006119874, Final residual = 0.0003707305, No Iterations 4
DILUPBiCGStab:  Solving for ILambda_13_0, Initial residual = 0.01348101, Final residual = 0.00104936, No Iterations 6
DILUPBiCGStab:  Solving for ILambda_14_0, Initial residual = 0.02557477, Final residual = 0.002425264, No Iterations 5
DILUPBiCGStab:  Solving for ILambda_15_0, Initial residual = 0.03545745, Final residual = 0.003098978, No Iterations 5
Radiation solver iter: 8
DILUPBiCGStab:  Solving for ILambda_0_0, Initial residual = 0.01531746, Final residual = 1.514552e-17, No Iterations 1
DILUPBiCGStab:  Solving for ILambda_1_0, Initial residual = 0.01153602, Final residual = 7.29706e-18, No Iterations 1
DILUPBiCGStab:  Solving for ILambda_2_0, Initial residual = 0.004799158, Final residual = 3.095111e-18, No Iterations 1
DILUPBiCGStab:  Solving for ILambda_5_0, Initial residual = 0.004743287, Final residual = 0.0003166013, No Iterations 3
DILUPBiCGStab:  Solving for ILambda_6_0, Initial residual = 0.01180162, Final residual = 0.001003349, No Iterations 2
DILUPBiCGStab:  Solving for ILambda_7_0, Initial residual = 0.0160841, Final residual = 0.0009729056, No Iterations 4
DILUPBiCGStab:  Solving for ILambda_8_0, Initial residual = 0.02917711, Final residual = 2.902476e-17, No Iterations 1
DILUPBiCGStab:  Solving for ILambda_9_0, Initial residual = 0.02106747, Final residual = 2.050233e-17, No Iterations 1
DILUPBiCGStab:  Solving for ILambda_10_0, Initial residual = 0.01047527, Final residual = 1.520957e-17, No Iterations 1
DILUPBiCGStab:  Solving for ILambda_11_0, Initial residual = 0.004876173, Final residual = 1.33957e-17, No Iterations 1
DILUPBiCGStab:  Solving for ILambda_12_0, Initial residual = 0.004695021, Final residual = 3.15717e-05, No Iterations 5
DILUPBiCGStab:  Solving for ILambda_13_0, Initial residual = 0.01038663, Final residual = 0.0003010326, No Iterations 8
DILUPBiCGStab:  Solving for ILambda_14_0, Initial residual = 0.02096569, Final residual = 0.001747302, No Iterations 6
DILUPBiCGStab:  Solving for ILambda_15_0, Initial residual = 0.03027642, Final residual = 0.002804355, No Iterations 5
Radiation solver iter: 9
DILUPBiCGStab:  Solving for ILambda_0_0, Initial residual = 0.01323088, Final residual = 1.217195e-17, No Iterations 1
DILUPBiCGStab:  Solving for ILambda_1_0, Initial residual = 0.00914839, Final residual = 5.759233e-18, No Iterations 1
DILUPBiCGStab:  Solving for ILambda_2_0, Initial residual = 0.003038468, Final residual = 1.585444e-18, No Iterations 1
DILUPBiCGStab:  Solving for ILambda_5_0, Initial residual = 0.003006033, Final residual = 0.0001691386, No Iterations 3
DILUPBiCGStab:  Solving for ILambda_6_0, Initial residual = 0.00933073, Final residual = 0.0007021929, No Iterations 2
DILUPBiCGStab:  Solving for ILambda_7_0, Initial residual = 0.01373838, Final residual = 0.0006744973, No Iterations 4
DILUPBiCGStab:  Solving for ILambda_8_0, Initial residual = 0.02500158, Final residual = 2.336232e-17, No Iterations 1
DILUPBiCGStab:  Solving for ILambda_9_0, Initial residual = 0.01757563, Final residual = 1.508967e-17, No Iterations 1
DILUPBiCGStab:  Solving for ILambda_10_0, Initial residual = 0.008289808, Final residual = 1.164054e-17, No Iterations 1
DILUPBiCGStab:  Solving for ILambda_11_0, Initial residual = 0.003947897, Final residual = 1.098039e-17, No Iterations 1
DILUPBiCGStab:  Solving for ILambda_12_0, Initial residual = 0.003934256, Final residual = 0.0002041602, No Iterations 4
DILUPBiCGStab:  Solving for ILambda_13_0, Initial residual = 0.00805028, Final residual = 0.000523622, No Iterations 7
DILUPBiCGStab:  Solving for ILambda_14_0, Initial residual = 0.01773247, Final residual = 0.001625021, No Iterations 4
DILUPBiCGStab:  Solving for ILambda_15_0, Initial residual = 0.02568243, Final residual = 0.002311614, No Iterations 5
Radiation solver iter: 10
DILUPBiCGStab:  Solving for ILambda_0_0, Initial residual = 0.01138888, Final residual = 9.607224e-18, No Iterations 1
DILUPBiCGStab:  Solving for ILambda_1_0, Initial residual = 0.007189971, Final residual = 3.94873e-18, No Iterations 1
DILUPBiCGStab:  Solving for ILambda_2_0, Initial residual = 0.001862319, Final residual = 1.491669e-18, No Iterations 1
DILUPBiCGStab:  Solving for ILambda_5_0, Initial residual = 0.001854375, Final residual = 9.328936e-05, No Iterations 3
DILUPBiCGStab:  Solving for ILambda_6_0, Initial residual = 0.007281683, Final residual = 0.0004904318, No Iterations 2
DILUPBiCGStab:  Solving for ILambda_7_0, Initial residual = 0.01181258, Final residual = 0.0007056098, No Iterations 4
DILUPBiCGStab:  Solving for ILambda_8_0, Initial residual = 0.02130474, Final residual = 1.962501e-17, No Iterations 1
DILUPBiCGStab:  Solving for ILambda_9_0, Initial residual = 0.01464127, Final residual = 1.201523e-17, No Iterations 1
DILUPBiCGStab:  Solving for ILambda_10_0, Initial residual = 0.006638462, Final residual = 9.465927e-18, No Iterations 1
DILUPBiCGStab:  Solving for ILambda_11_0, Initial residual = 0.003187172, Final residual = 8.592342e-18, No Iterations 1
DILUPBiCGStab:  Solving for ILambda_12_0, Initial residual = 0.003273979, Final residual = 0.0001398383, No Iterations 4
DILUPBiCGStab:  Solving for ILambda_13_0, Initial residual = 0.006549166, Final residual = 0.0005383858, No Iterations 8
DILUPBiCGStab:  Solving for ILambda_14_0, Initial residual = 0.01485713, Final residual = 0.001383774, No Iterations 5
DILUPBiCGStab:  Solving for ILambda_15_0, Initial residual = 0.02169102, Final residual = 0.002041013, No Iterations 5
Radiation solver iter: 11
DILUPBiCGStab:  Solving for ILambda_0_0, Initial residual = 0.009775439, Final residual = 8.25216e-18, No Iterations 1
DILUPBiCGStab:  Solving for ILambda_1_0, Initial residual = 0.00558701, Final residual = 2.769773e-18, No Iterations 1
DILUPBiCGStab:  Solving for ILambda_2_0, Initial residual = 0.001118313, Final residual = 6.156328e-19, No Iterations 1
DILUPBiCGStab:  Solving for ILambda_5_0, Initial residual = 0.001151342, Final residual = 6.251741e-05, No Iterations 3
DILUPBiCGStab:  Solving for ILambda_6_0, Initial residual = 0.005586416, Final residual = 0.0003474237, No Iterations 2
DILUPBiCGStab:  Solving for ILambda_7_0, Initial residual = 0.01020292, Final residual = 0.0009834637, No Iterations 2
DILUPBiCGStab:  Solving for ILambda_8_0, Initial residual = 0.01809747, Final residual = 1.755753e-17, No Iterations 1
DILUPBiCGStab:  Solving for ILambda_9_0, Initial residual = 0.01212758, Final residual = 9.567983e-18, No Iterations 1
DILUPBiCGStab:  Solving for ILambda_10_0, Initial residual = 0.005301947, Final residual = 7.628158e-18, No Iterations 1
DILUPBiCGStab:  Solving for ILambda_11_0, Initial residual = 0.002517747, Final residual = 6.733361e-18, No Iterations 1
DILUPBiCGStab:  Solving for ILambda_12_0, Initial residual = 0.002565977, Final residual = 0.0001011108, No Iterations 4
DILUPBiCGStab:  Solving for ILambda_13_0, Initial residual = 0.005239938, Final residual = 0.0001255118, No Iterations 8
DILUPBiCGStab:  Solving for ILambda_14_0, Initial residual = 0.01235367, Final residual = 0.001110178, No Iterations 5
DILUPBiCGStab:  Solving for ILambda_15_0, Initial residual = 0.01812823, Final residual = 0.001507675, No Iterations 5
Radiation solver iter: 12
DILUPBiCGStab:  Solving for ILambda_0_0, Initial residual = 0.008355553, Final residual = 6.094495e-18, No Iterations 1
DILUPBiCGStab:  Solving for ILambda_1_0, Initial residual = 0.004286299, Final residual = 2.816108e-18, No Iterations 1
DILUPBiCGStab:  Solving for ILambda_2_0, Initial residual = 0.0006637227, Final residual = 4.004139e-19, No Iterations 1
DILUPBiCGStab:  Solving for ILambda_5_0, Initial residual = 0.0007103329, Final residual = 9.508405e-05, No Iterations 2
DILUPBiCGStab:  Solving for ILambda_6_0, Initial residual = 0.004235234, Final residual = 0.0002442059, No Iterations 2
DILUPBiCGStab:  Solving for ILambda_7_0, Initial residual = 0.00885549, Final residual = 0.0003941881, No Iterations 4
DILUPBiCGStab:  Solving for ILambda_8_0, Initial residual = 0.01533041, Final residual = 1.393893e-17, No Iterations 1
DILUPBiCGStab:  Solving for ILambda_9_0, Initial residual = 0.00998521, Final residual = 8.58816e-18, No Iterations 1
DILUPBiCGStab:  Solving for ILambda_10_0, Initial residual = 0.004227898, Final residual = 6.24152e-18, No Iterations 1
DILUPBiCGStab:  Solving for ILambda_11_0, Initial residual = 0.001976596, Final residual = 5.379691e-18, No Iterations 1
DILUPBiCGStab:  Solving for ILambda_12_0, Initial residual = 0.001996507, Final residual = 7.351741e-05, No Iterations 4
DILUPBiCGStab:  Solving for ILambda_13_0, Initial residual = 0.004185157, Final residual = 0.0001564978, No Iterations 8
DILUPBiCGStab:  Solving for ILambda_14_0, Initial residual = 0.01023534, Final residual = 0.0009884916, No Iterations 6
DILUPBiCGStab:  Solving for ILambda_15_0, Initial residual = 0.01505195, Final residual = 0.0004237439, No Iterations 6
Radiation solver iter: 13
DILUPBiCGStab:  Solving for ILambda_0_0, Initial residual = 0.007118053, Final residual = 4.821499e-18, No Iterations 1
DILUPBiCGStab:  Solving for ILambda_1_0, Initial residual = 0.003241515, Final residual = 1.417657e-18, No Iterations 1
DILUPBiCGStab:  Solving for ILambda_6_0, Initial residual = 0.003159611, Final residual = 0.0002935747, No Iterations 2
DILUPBiCGStab:  Solving for ILambda_7_0, Initial residual = 0.007526559, Final residual = 0.0005612691, No Iterations 2
DILUPBiCGStab:  Solving for ILambda_8_0, Initial residual = 0.01291095, Final residual = 1.081323e-17, No Iterations 1
DILUPBiCGStab:  Solving for ILambda_9_0, Initial residual = 0.008150139, Final residual = 6.213234e-18, No Iterations 1
DILUPBiCGStab:  Solving for ILambda_10_0, Initial residual = 0.003343412, Final residual = 4.877027e-18, No Iterations 1
DILUPBiCGStab:  Solving for ILambda_11_0, Initial residual = 0.00151461, Final residual = 4.336214e-18, No Iterations 1
DILUPBiCGStab:  Solving for ILambda_12_0, Initial residual = 0.001525374, Final residual = 5.184079e-05, No Iterations 4
DILUPBiCGStab:  Solving for ILambda_13_0, Initial residual = 0.0033703, Final residual = 0.000263347, No Iterations 7
DILUPBiCGStab:  Solving for ILambda_14_0, Initial residual = 0.008348329, Final residual = 0.0007908952, No Iterations 5
DILUPBiCGStab:  Solving for ILambda_15_0, Initial residual = 0.01250303, Final residual = 0.000584318, No Iterations 4
Radiation solver iter: 14
DILUPBiCGStab:  Solving for ILambda_0_0, Initial residual = 0.006036789, Final residual = 4.030965e-18, No Iterations 1
DILUPBiCGStab:  Solving for ILambda_1_0, Initial residual = 0.002416362, Final residual = 1.024626e-18, No Iterations 1
DILUPBiCGStab:  Solving for ILambda_6_0, Initial residual = 0.002358397, Final residual = 0.0001971419, No Iterations 2
DILUPBiCGStab:  Solving for ILambda_7_0, Initial residual = 0.006424282, Final residual = 0.0005959866, No Iterations 2
DILUPBiCGStab:  Solving for ILambda_8_0, Initial residual = 0.01080731, Final residual = 8.108828e-18, No Iterations 1
DILUPBiCGStab:  Solving for ILambda_9_0, Initial residual = 0.006603401, Final residual = 5.002817e-18, No Iterations 1
DILUPBiCGStab:  Solving for ILambda_10_0, Initial residual = 0.002649655, Final residual = 3.837205e-18, No Iterations 1
DILUPBiCGStab:  Solving for ILambda_11_0, Initial residual = 0.001175092, Final residual = 3.146239e-18, No Iterations 1
DILUPBiCGStab:  Solving for ILambda_12_0, Initial residual = 0.001178141, Final residual = 4.270533e-05, No Iterations 4
DILUPBiCGStab:  Solving for ILambda_13_0, Initial residual = 0.002706835, Final residual = 5.315094e-05, No Iterations 9
DILUPBiCGStab:  Solving for ILambda_14_0, Initial residual = 0.006684162, Final residual = 0.0005799698, No Iterations 6
DILUPBiCGStab:  Solving for ILambda_15_0, Initial residual = 0.01046691, Final residual = 0.0004618761, No Iterations 4
GAMG:  Solving for p_rgh, Initial residual = 0.04437512, Final residual = 0.0002318004, No Iterations 5
time step continuity errors : sum local = 5.54214e-05, global = -1.408435e-17, cumulative = -1.408435e-17
rho min/max : 0.5400131 0.8600208
DILUPBiCGStab:  Solving for omega, Initial residual = 0.1295333, Final residual = 0.003740919, No Iterations 1
DILUPBiCGStab:  Solving for k, Initial residual = 1, Final residual = 0.01668199, No Iterations 1
ExecutionTime = 0.58 s  ClockTime = 1 s

Time = 2

DILUPBiCGStab:  Solving for h, Initial residual = 0.4191028, Final residual = 0.0003706458, No Iterations 1
limitTemperature limitT Lower limited 0 (0%) of cells, with min limit 250
limitTemperature limitT Upper limited 0 (0%) of cells, with max limit 1400
limitTemperature limitT Unlimited Tmin 449.8266
limitTemperature limitT Unlimited Tmax 450.7513
Radiation solver iter: 0
DILUPBiCGStab:  Solving for ILambda_0_0, Initial residual = 0.005576743, Final residual = 6.310521e-18, No Iterations 1
DILUPBiCGStab:  Solving for ILambda_1_0, Initial residual = 0.002195277, Final residual = 2.837879e-18, No Iterations 1
DILUPBiCGStab:  Solving for ILambda_2_0, Initial residual = 0.0008081904, Final residual = 2.008592e-18, No Iterations 1
DILUPBiCGStab:  Solving for ILambda_3_0, Initial residual = 0.001230364, Final residual = 4.039669e-18, No Iterations 1
DILUPBiCGStab:  Solving for ILambda_4_0, Initial residual = 0.001325828, Final residual = 7.368159e-05, No Iterations 5
DILUPBiCGStab:  Solving for ILambda_5_0, Initial residual = 0.0008878701, Final residual = 6.553889e-06, No Iterations 11
DILUPBiCGStab:  Solving for ILambda_6_0, Initial residual = 0.002172283, Final residual = 8.144195e-05, No Iterations 15
DILUPBiCGStab:  Solving for ILambda_7_0, Initial residual = 0.006003295, Final residual = 0.0005825588, No Iterations 7
DILUPBiCGStab:  Solving for ILambda_8_0, Initial residual = 0.01764748, Final residual = 2.247833e-17, No Iterations 1
DILUPBiCGStab:  Solving for ILambda_9_0, Initial residual = 0.009731595, Final residual = 8.441806e-18, No Iterations 1
DILUPBiCGStab:  Solving for ILambda_10_0, Initial residual = 0.004995851, Final residual = 5.894801e-18, No Iterations 1
DILUPBiCGStab:  Solving for ILambda_11_0, Initial residual = 0.00248169, Final residual = 4.647593e-18, No Iterations 1
DILUPBiCGStab:  Solving for ILambda_12_0, Initial residual = 0.002428084, Final residual = 0.0001654631, No Iterations 4
DILUPBiCGStab:  Solving for ILambda_13_0, Initial residual = 0.004838008, Final residual = 0.0004105664, No Iterations 9
DILUPBiCGStab:  Solving for ILambda_14_0, Initial residual = 0.00950727, Final residual = 0.0008538892, No Iterations 10
DILUPBiCGStab:  Solving for ILambda_15_0, Initial residual = 0.01681892, Final residual = 0.001514996, No Iterations 21
Radiation solver iter: 1
DILUPBiCGStab:  Solving for ILambda_0_0, Initial residual = 0.005181869, Final residual = 3.991482e-18, No Iterations 1
DILUPBiCGStab:  Solving for ILambda_1_0, Initial residual = 0.002201955, Final residual = 1.398843e-18, No Iterations 1
DILUPBiCGStab:  Solving for ILambda_3_0, Initial residual = 0.001245897, Final residual = 1.741235e-18, No Iterations 1
DILUPBiCGStab:  Solving for ILambda_4_0, Initial residual = 0.001290359, Final residual = 5.927558e-05, No Iterations 4
DILUPBiCGStab:  Solving for ILambda_6_0, Initial residual = 0.002218644, Final residual = 0.0001818388, No Iterations 6
DILUPBiCGStab:  Solving for ILambda_7_0, Initial residual = 0.005761451, Final residual = 0.0005327356, No Iterations 8
DILUPBiCGStab:  Solving for ILambda_8_0, Initial residual = 0.01479418, Final residual = 1.228972e-17, No Iterations 1
DILUPBiCGStab:  Solving for ILambda_9_0, Initial residual = 0.009398472, Final residual = 5.351444e-18, No Iterations 1
DILUPBiCGStab:  Solving for ILambda_10_0, Initial residual = 0.005296622, Final residual = 4.120407e-18, No Iterations 1
DILUPBiCGStab:  Solving for ILambda_11_0, Initial residual = 0.002383829, Final residual = 2.781639e-18, No Iterations 1
DILUPBiCGStab:  Solving for ILambda_12_0, Initial residual = 0.002279792, Final residual = 0.000184347, No Iterations 3
DILUPBiCGStab:  Solving for ILambda_13_0, Initial residual = 0.005259282, Final residual = 0.0001400955, No Iterations 7
DILUPBiCGStab:  Solving for ILambda_14_0, Initial residual = 0.009430383, Final residual = 0.0008130979, No Iterations 5
DILUPBiCGStab:  Solving for ILambda_15_0, Initial residual = 0.01476823, Final residual = 0.001223857, No Iterations 10
Radiation solver iter: 2
DILUPBiCGStab:  Solving for ILambda_0_0, Initial residual = 0.004327584, Final residual = 2.873828e-18, No Iterations 1
DILUPBiCGStab:  Solving for ILambda_1_0, Initial residual = 0.001664725, Final residual = 1.175222e-18, No Iterations 1
DILUPBiCGStab:  Solving for ILambda_3_0, Initial residual = 0.000778364, Final residual = 7.958823e-19, No Iterations 1
DILUPBiCGStab:  Solving for ILambda_4_0, Initial residual = 0.0007978381, Final residual = 8.89814e-05, No Iterations 2
DILUPBiCGStab:  Solving for ILambda_6_0, Initial residual = 0.001697603, Final residual = 0.0001209025, No Iterations 5
DILUPBiCGStab:  Solving for ILambda_7_0, Initial residual = 0.004636061, Final residual = 0.0004173758, No Iterations 6
DILUPBiCGStab:  Solving for ILambda_8_0, Initial residual = 0.01102927, Final residual = 8.626073e-18, No Iterations 1
DILUPBiCGStab:  Solving for ILambda_9_0, Initial residual = 0.006123489, Final residual = 4.115073e-18, No Iterations 1
DILUPBiCGStab:  Solving for ILambda_10_0, Initial residual = 0.003166931, Final residual = 3.075355e-18, No Iterations 1
DILUPBiCGStab:  Solving for ILambda_11_0, Initial residual = 0.001370607, Final residual = 2.008783e-18, No Iterations 1
DILUPBiCGStab:  Solving for ILambda_12_0, Initial residual = 0.001424999, Final residual = 8.210056e-05, No Iterations 3
DILUPBiCGStab:  Solving for ILambda_13_0, Initial residual = 0.003117035, Final residual = 0.0001056458, No Iterations 8
DILUPBiCGStab:  Solving for ILambda_14_0, Initial residual = 0.006220027, Final residual = 0.0005804154, No Iterations 5
DILUPBiCGStab:  Solving for ILambda_15_0, Initial residual = 0.01087112, Final residual = 0.0005848332, No Iterations 8
Radiation solver iter: 3
DILUPBiCGStab:  Solving for ILambda_0_0, Initial residual = 0.003597732, Final residual = 2.613764e-18, No Iterations 1
DILUPBiCGStab:  Solving for ILambda_1_0, Initial residual = 0.001244932, Final residual = 8.779649e-19, No Iterations 1
DILUPBiCGStab:  Solving for ILambda_6_0, Initial residual = 0.001263788, Final residual = 9.494139e-05, No Iterations 4
DILUPBiCGStab:  Solving for ILambda_7_0, Initial residual = 0.003783207, Final residual = 0.0002622666, No Iterations 5
DILUPBiCGStab:  Solving for ILambda_8_0, Initial residual = 0.008425571, Final residual = 7.319531e-18, No Iterations 1
DILUPBiCGStab:  Solving for ILambda_9_0, Initial residual = 0.004424971, Final residual = 3.108974e-18, No Iterations 1
DILUPBiCGStab:  Solving for ILambda_10_0, Initial residual = 0.001992087, Final residual = 2.104703e-18, No Iterations 1
DILUPBiCGStab:  Solving for ILambda_11_0, Initial residual = 0.0007502376, Final residual = 1.509442e-18, No Iterations 1
DILUPBiCGStab:  Solving for ILambda_12_0, Initial residual = 0.0007622378, Final residual = 7.317885e-05, No Iterations 4
DILUPBiCGStab:  Solving for ILambda_13_0, Initial residual = 0.001972952, Final residual = 0.0001642321, No Iterations 6
DILUPBiCGStab:  Solving for ILambda_14_0, Initial residual = 0.004530954, Final residual = 0.0004203988, No Iterations 4
DILUPBiCGStab:  Solving for ILambda_15_0, Initial residual = 0.008261006, Final residual = 0.0006076424, No Iterations 7
Radiation solver iter: 4
DILUPBiCGStab:  Solving for ILambda_0_0, Initial residual = 0.003000615, Final residual = 2.070937e-18, No Iterations 1
DILUPBiCGStab:  Solving for ILambda_1_0, Initial residual = 0.0009512049, Final residual = 6.352442e-19, No Iterations 1
DILUPBiCGStab:  Solving for ILambda_6_0, Initial residual = 0.0009740214, Final residual = 6.284699e-05, No Iterations 4
DILUPBiCGStab:  Solving for ILambda_7_0, Initial residual = 0.003121816, Final residual = 0.0002521559, No Iterations 3
DILUPBiCGStab:  Solving for ILambda_8_0, Initial residual = 0.006749079, Final residual = 5.411109e-18, No Iterations 1
DILUPBiCGStab:  Solving for ILambda_9_0, Initial residual = 0.003368764, Final residual = 2.604857e-18, No Iterations 1
DILUPBiCGStab:  Solving for ILambda_10_0, Initial residual = 0.001411175, Final residual = 1.626606e-18, No Iterations 1
DILUPBiCGStab:  Solving for ILambda_13_0, Initial residual = 0.001394415, Final residual = 0.0001311907, No Iterations 6
DILUPBiCGStab:  Solving for ILambda_14_0, Initial residual = 0.003484849, Final residual = 0.0003287558, No Iterations 5
DILUPBiCGStab:  Solving for ILambda_15_0, Initial residual = 0.006670369, Final residual = 0.0004660522, No Iterations 6
Radiation solver iter: 5
DILUPBiCGStab:  Solving for ILambda_0_0, Initial residual = 0.002497632, Final residual = 1.672531e-18, No Iterations 1
DILUPBiCGStab:  Solving for ILambda_7_0, Initial residual = 0.002596741, Final residual = 0.0002527914, No Iterations 3
DILUPBiCGStab:  Solving for ILambda_8_0, Initial residual = 0.005581312, Final residual = 4.765392e-18, No Iterations 1
DILUPBiCGStab:  Solving for ILambda_9_0, Initial residual = 0.002635946, Final residual = 2.084133e-18, No Iterations 1
DILUPBiCGStab:  Solving for ILambda_10_0, Initial residual = 0.0009975868, Final residual = 1.147112e-18, No Iterations 1
DILUPBiCGStab:  Solving for ILambda_13_0, Initial residual = 0.001011715, Final residual = 5.662186e-05, No Iterations 6
DILUPBiCGStab:  Solving for ILambda_14_0, Initial residual = 0.00275103, Final residual = 0.0001049397, No Iterations 6
DILUPBiCGStab:  Solving for ILambda_15_0, Initial residual = 0.00554167, Final residual = 0.0002786648, No Iterations 6
Radiation solver iter: 6
DILUPBiCGStab:  Solving for ILambda_0_0, Initial residual = 0.002073495, Final residual = 1.358546e-18, No Iterations 1
DILUPBiCGStab:  Solving for ILambda_7_0, Initial residual = 0.002171652, Final residual = 0.0001616167, No Iterations 4
DILUPBiCGStab:  Solving for ILambda_8_0, Initial residual = 0.004723997, Final residual = 4.18096e-18, No Iterations 1
DILUPBiCGStab:  Solving for ILambda_9_0, Initial residual = 0.002107175, Final residual = 1.737144e-18, No Iterations 1
DILUPBiCGStab:  Solving for ILambda_13_0, Initial residual = 0.0007357435, Final residual = 8.340057e-05, No Iterations 6
DILUPBiCGStab:  Solving for ILambda_14_0, Initial residual = 0.002152137, Final residual = 0.0001922534, No Iterations 4
DILUPBiCGStab:  Solving for ILambda_15_0, Initial residual = 0.004676152, Final residual = 0.0004567627, No Iterations 5
Radiation solver iter: 7
DILUPBiCGStab:  Solving for ILambda_0_0, Initial residual = 0.001716683, Final residual = 1.033825e-18, No Iterations 1
DILUPBiCGStab:  Solving for ILambda_7_0, Initial residual = 0.001796156, Final residual = 0.0001747499, No Iterations 3
DILUPBiCGStab:  Solving for ILambda_8_0, Initial residual = 0.004031314, Final residual = 3.712457e-18, No Iterations 1
DILUPBiCGStab:  Solving for ILambda_9_0, Initial residual = 0.00169215, Final residual = 1.365889e-18, No Iterations 1
DILUPBiCGStab:  Solving for ILambda_14_0, Initial residual = 0.001749315, Final residual = 3.400625e-05, No Iterations 8
DILUPBiCGStab:  Solving for ILambda_15_0, Initial residual = 0.004016692, Final residual = 0.0001553621, No Iterations 6
Radiation solver iter: 8
DILUPBiCGStab:  Solving for ILambda_0_0, Initial residual = 0.001416214, Final residual = 8.04848e-19, No Iterations 1
DILUPBiCGStab:  Solving for ILambda_7_0, Initial residual = 0.001496835, Final residual = 8.270763e-05, No Iterations 4
DILUPBiCGStab:  Solving for ILambda_8_0, Initial residual = 0.003464667, Final residual = 2.783577e-18, No Iterations 1
DILUPBiCGStab:  Solving for ILambda_9_0, Initial residual = 0.001357437, Final residual = 9.594225e-19, No Iterations 1
DILUPBiCGStab:  Solving for ILambda_14_0, Initial residual = 0.001358021, Final residual = 0.0001334387, No Iterations 4
DILUPBiCGStab:  Solving for ILambda_15_0, Initial residual = 0.003431673, Final residual = 0.0002047395, No Iterations 4
Radiation solver iter: 9
DILUPBiCGStab:  Solving for ILambda_0_0, Initial residual = 0.001165968, Final residual = 7.506474e-19, No Iterations 1
DILUPBiCGStab:  Solving for ILambda_7_0, Initial residual = 0.001228331, Final residual = 9.078631e-05, No Iterations 3
DILUPBiCGStab:  Solving for ILambda_8_0, Initial residual = 0.002976156, Final residual = 2.284421e-18, No Iterations 1
DILUPBiCGStab:  Solving for ILambda_9_0, Initial residual = 0.001081628, Final residual = 7.283523e-19, No Iterations 1
DILUPBiCGStab:  Solving for ILambda_14_0, Initial residual = 0.001106305, Final residual = 9.816053e-05, No Iterations 4
DILUPBiCGStab:  Solving for ILambda_15_0, Initial residual = 0.00295299, Final residual = 0.0001661376, No Iterations 4
Radiation solver iter: 10
DILUPBiCGStab:  Solving for ILambda_0_0, Initial residual = 0.0009550243, Final residual = 5.365274e-19, No Iterations 1
DILUPBiCGStab:  Solving for ILambda_7_0, Initial residual = 0.001014021, Final residual = 9.201776e-05, No Iterations 4
DILUPBiCGStab:  Solving for ILambda_8_0, Initial residual = 0.002547139, Final residual = 1.965894e-18, No Iterations 1
DILUPBiCGStab:  Solving for ILambda_9_0, Initial residual = 0.0008548116, Final residual = 6.095343e-19, No Iterations 1
DILUPBiCGStab:  Solving for ILambda_14_0, Initial residual = 0.000870546, Final residual = 7.906543e-05, No Iterations 5
DILUPBiCGStab:  Solving for ILambda_15_0, Initial residual = 0.002535149, Final residual = 0.0001267466, No Iterations 4
Radiation solver iter: 11
DILUPBiCGStab:  Solving for ILambda_7_0, Initial residual = 0.0008336193, Final residual = 8.277402e-05, No Iterations 3
DILUPBiCGStab:  Solving for ILambda_8_0, Initial residual = 0.002171282, Final residual = 1.660567e-18, No Iterations 1
DILUPBiCGStab:  Solving for ILambda_15_0, Initial residual = 0.002173163, Final residual = 8.899545e-05, No Iterations 4
Radiation solver iter: 12
DILUPBiCGStab:  Solving for ILambda_8_0, Initial residual = 0.001838423, Final residual = 1.265521e-18, No Iterations 1
DILUPBiCGStab:  Solving for ILambda_15_0, Initial residual = 0.001845903, Final residual = 0.0001644869, No Iterations 2
Radiation solver iter: 13
DILUPBiCGStab:  Solving for ILambda_8_0, Initial residual = 0.001552362, Final residual = 1.16655e-18, No Iterations 1
DILUPBiCGStab:  Solving for ILambda_15_0, Initial residual = 0.00158088, Final residual = 0.000157047, No Iterations 3
Radiation solver iter: 14
DILUPBiCGStab:  Solving for ILambda_8_0, Initial residual = 0.001305714, Final residual = 9.607265e-19, No Iterations 1
DILUPBiCGStab:  Solving for ILambda_15_0, Initial residual = 0.001351423, Final residual = 0.0001334742, No Iterations 3
GAMG:  Solving for p_rgh, Initial residual = 0.3905205, Final residual = 0.001869081, No Iterations 2
time step continuity errors : sum local = 0.01881501, global = 1.49861e-15, cumulative = 1.484525e-15
rho min/max : 0.5399838 0.8601045
DILUPBiCGStab:  Solving for omega, Initial residual = 0.3272617, Final residual = 0.01127358, No Iterations 1
DILUPBiCGStab:  Solving for k, Initial residual = 0.9911474, Final residual = 0.006134115, No Iterations 1
ExecutionTime = 0.83 s  ClockTime = 1 s

Time = 3

DILUPBiCGStab:  Solving for h, Initial residual = 0.02625408, Final residual = 4.238773e-05, No Iterations 1
limitTemperature limitT Lower limited 0 (0%) of cells, with min limit 250
limitTemperature limitT Upper limited 0 (0%) of cells, with max limit 1400
limitTemperature limitT Unlimited Tmin 444.9356
limitTemperature limitT Unlimited Tmax 473.1477
Radiation solver iter: 0
DILUPBiCGStab:  Solving for ILambda_0_0, Initial residual = 0.0008842554, Final residual = 9.1633e-19, No Iterations 1
DILUPBiCGStab:  Solving for ILambda_1_0, Initial residual = 0.0008275157, Final residual = 5.643308e-19, No Iterations 1
DILUPBiCGStab:  Solving for ILambda_2_0, Initial residual = 0.001220908, Final residual = 1.195269e-18, No Iterations 1
DILUPBiCGStab:  Solving for ILambda_3_0, Initial residual = 0.0005056404, Final residual = 6.132642e-19, No Iterations 1
DILUPBiCGStab:  Solving for ILambda_4_0, Initial residual = 0.0007001814, Final residual = 9.475938e-05, No Iterations 4
DILUPBiCGStab:  Solving for ILambda_5_0, Initial residual = 0.001577343, Final residual = 0.0001187517, No Iterations 8
DILUPBiCGStab:  Solving for ILambda_6_0, Initial residual = 0.001102008, Final residual = 0.0001086112, No Iterations 15
DILUPBiCGStab:  Solving for ILambda_7_0, Initial residual = 0.001094155, Final residual = 8.845943e-05, No Iterations 32
DILUPBiCGStab:  Solving for ILambda_8_0, Initial residual = 0.007905802, Final residual = 1.317708e-17, No Iterations 1
DILUPBiCGStab:  Solving for ILambda_9_0, Initial residual = 0.004169168, Final residual = 3.885417e-18, No Iterations 1
DILUPBiCGStab:  Solving for ILambda_10_0, Initial residual = 0.003120233, Final residual = 3.955772e-18, No Iterations 1
DILUPBiCGStab:  Solving for ILambda_11_0, Initial residual = 0.001900307, Final residual = 4.128259e-18, No Iterations 1
DILUPBiCGStab:  Solving for ILambda_12_0, Initial residual = 0.001358637, Final residual = 0.0001005562, No Iterations 4
DILUPBiCGStab:  Solving for ILambda_13_0, Initial residual = 0.001442693, Final residual = 5.485283e-05, No Iterations 10
DILUPBiCGStab:  Solving for ILambda_14_0, Initial residual = 0.001733276, Final residual = 0.0001722333, No Iterations 16
DILUPBiCGStab:  Solving for ILambda_15_0, Initial residual = 0.002954072, Final residual = 7.381448e-05, No Iterations 33
Radiation solver iter: 1
DILUPBiCGStab:  Solving for ILambda_2_0, Initial residual = 0.0009802734, Final residual = 7.189547e-19, No Iterations 1
DILUPBiCGStab:  Solving for ILambda_5_0, Initial residual = 0.001529348, Final residual = 7.743866e-05, No Iterations 6
DILUPBiCGStab:  Solving for ILambda_6_0, Initial residual = 0.001210062, Final residual = 0.000114745, No Iterations 7
DILUPBiCGStab:  Solving for ILambda_7_0, Initial residual = 0.001361201, Final residual = 0.0001267463, No Iterations 13
DILUPBiCGStab:  Solving for ILambda_8_0, Initial residual = 0.005930977, Final residual = 6.40341e-18, No Iterations 1
DILUPBiCGStab:  Solving for ILambda_9_0, Initial residual = 0.003790326, Final residual = 2.209878e-18, No Iterations 1
DILUPBiCGStab:  Solving for ILambda_10_0, Initial residual = 0.002893567, Final residual = 1.735514e-18, No Iterations 1
DILUPBiCGStab:  Solving for ILambda_11_0, Initial residual = 0.001416284, Final residual = 1.349207e-18, No Iterations 1
DILUPBiCGStab:  Solving for ILambda_12_0, Initial residual = 0.0007773193, Final residual = 6.495856e-05, No Iterations 3
DILUPBiCGStab:  Solving for ILambda_13_0, Initial residual = 0.001370989, Final residual = 7.630711e-05, No Iterations 6
DILUPBiCGStab:  Solving for ILambda_14_0, Initial residual = 0.001935775, Final residual = 0.0001845972, No Iterations 8
DILUPBiCGStab:  Solving for ILambda_15_0, Initial residual = 0.003153737, Final residual = 0.0002619167, No Iterations 12
Radiation solver iter: 2
DILUPBiCGStab:  Solving for ILambda_5_0, Initial residual = 0.001216263, Final residual = 4.499361e-05, No Iterations 5
DILUPBiCGStab:  Solving for ILambda_6_0, Initial residual = 0.001023055, Final residual = 7.542218e-05, No Iterations 5
DILUPBiCGStab:  Solving for ILambda_7_0, Initial residual = 0.001223249, Final residual = 0.0001026964, No Iterations 8
DILUPBiCGStab:  Solving for ILambda_8_0, Initial residual = 0.004269931, Final residual = 4.016546e-18, No Iterations 1
DILUPBiCGStab:  Solving for ILambda_9_0, Initial residual = 0.002353229, Final residual = 1.521646e-18, No Iterations 1
DILUPBiCGStab:  Solving for ILambda_10_0, Initial residual = 0.001546888, Final residual = 1.144555e-18, No Iterations 1
DILUPBiCGStab:  Solving for ILambda_11_0, Initial residual = 0.0007266529, Final residual = 8.333814e-19, No Iterations 1
DILUPBiCGStab:  Solving for ILambda_13_0, Initial residual = 0.0009497144, Final residual = 3.487647e-05, No Iterations 7
DILUPBiCGStab:  Solving for ILambda_14_0, Initial residual = 0.001423863, Final residual = 0.0001398107, No Iterations 5
DILUPBiCGStab:  Solving for ILambda_15_0, Initial residual = 0.002620525, Final residual = 0.0002550885, No Iterations 7
Radiation solver iter: 3
DILUPBiCGStab:  Solving for ILambda_5_0, Initial residual = 0.0009120383, Final residual = 6.981235e-05, No Iterations 3
DILUPBiCGStab:  Solving for ILambda_6_0, Initial residual = 0.0008225127, Final residual = 8.394862e-05, No Iterations 3
DILUPBiCGStab:  Solving for ILambda_7_0, Initial residual = 0.001077777, Final residual = 0.0001077125, No Iterations 7
DILUPBiCGStab:  Solving for ILambda_8_0, Initial residual = 0.003169966, Final residual = 3.34795e-18, No Iterations 1
DILUPBiCGStab:  Solving for ILambda_9_0, Initial residual = 0.001579009, Final residual = 1.160661e-18, No Iterations 1
DILUPBiCGStab:  Solving for ILambda_10_0, Initial residual = 0.0008983247, Final residual = 7.738133e-19, No Iterations 1
DILUPBiCGStab:  Solving for ILambda_14_0, Initial residual = 0.001118249, Final residual = 7.64079e-05, No Iterations 6
DILUPBiCGStab:  Solving for ILambda_15_0, Initial residual = 0.002235885, Final residual = 0.0001303102, No Iterations 8
Radiation solver iter: 4
DILUPBiCGStab:  Solving for ILambda_7_0, Initial residual = 0.0009609627, Final residual = 8.506209e-05, No Iterations 6
DILUPBiCGStab:  Solving for ILambda_8_0, Initial residual = 0.002534332, Final residual = 2.519956e-18, No Iterations 1
DILUPBiCGStab:  Solving for ILambda_9_0, Initial residual = 0.001144687, Final residual = 8.134837e-19, No Iterations 1
DILUPBiCGStab:  Solving for ILambda_14_0, Initial residual = 0.0008775342, Final residual = 9.323801e-05, No Iterations 4
DILUPBiCGStab:  Solving for ILambda_15_0, Initial residual = 0.001904447, Final residual = 0.0001443088, No Iterations 6
Radiation solver iter: 5
DILUPBiCGStab:  Solving for ILambda_8_0, Initial residual = 0.002116055, Final residual = 2.141101e-18, No Iterations 1
DILUPBiCGStab:  Solving for ILambda_9_0, Initial residual = 0.000890496, Final residual = 5.49555e-19, No Iterations 1
DILUPBiCGStab:  Solving for ILambda_15_0, Initial residual = 0.001662708, Final residual = 9.102836e-05, No Iterations 6
Radiation solver iter: 6
DILUPBiCGStab:  Solving for ILambda_8_0, Initial residual = 0.001815814, Final residual = 1.774258e-18, No Iterations 1
DILUPBiCGStab:  Solving for ILambda_15_0, Initial residual = 0.00144922, Final residual = 0.0001195604, No Iterations 4
Radiation solver iter: 7
DILUPBiCGStab:  Solving for ILambda_8_0, Initial residual = 0.001581623, Final residual = 1.389259e-18, No Iterations 1
DILUPBiCGStab:  Solving for ILambda_15_0, Initial residual = 0.001276444, Final residual = 8.659765e-05, No Iterations 4
Radiation solver iter: 8
DILUPBiCGStab:  Solving for ILambda_8_0, Initial residual = 0.001382724, Final residual = 1.188943e-18, No Iterations 1
DILUPBiCGStab:  Solving for ILambda_15_0, Initial residual = 0.001107534, Final residual = 9.860361e-05, No Iterations 3
Radiation solver iter: 9
DILUPBiCGStab:  Solving for ILambda_8_0, Initial residual = 0.001204543, Final residual = 1.058063e-18, No Iterations 1
DILUPBiCGStab:  Solving for ILambda_15_0, Initial residual = 0.0009774157, Final residual = 5.8618e-05, No Iterations 4
Radiation solver iter: 10
DILUPBiCGStab:  Solving for ILambda_8_0, Initial residual = 0.001045902, Final residual = 8.329486e-19, No Iterations 1
Radiation solver iter: 11
DILUPBiCGStab:  Solving for ILambda_8_0, Initial residual = 0.0009044384, Final residual = 8.59221e-19, No Iterations 1
GAMG:  Solving for p_rgh, Initial residual = 0.9731255, Final residual = 0.007039431, No Iterations 1
time step continuity errors : sum local = 0.2718334, global = -7.765861e-16, cumulative = 7.079392e-16
rho min/max : 0.5403151 0.860724
DILUPBiCGStab:  Solving for omega, Initial residual = 0.266628, Final residual = 0.008714032, No Iterations 1
bounding omega, min: -85.25637 max: 1911.925 average: 33.58654
DILUPBiCGStab:  Solving for k, Initial residual = 0.3972531, Final residual = 0.007409479, No Iterations 1
ExecutionTime = 1.01 s  ClockTime = 1 s

Time = 4

DILUPBiCGStab:  Solving for h, Initial residual = 0.0215436, Final residual = 0.0001875199, No Iterations 1
limitTemperature limitT Lower limited 0 (0%) of cells, with min limit 250
limitTemperature limitT Upper limited 0 (0%) of cells, with max limit 1400
limitTemperature limitT Unlimited Tmin 439.7358
limitTemperature limitT Unlimited Tmax 496.7739
Radiation solver iter: 0
DILUPBiCGStab:  Solving for ILambda_0_0, Initial residual = 0.0008323707, Final residual = 7.286106e-19, No Iterations 1
DILUPBiCGStab:  Solving for ILambda_1_0, Initial residual = 0.0007612234, Final residual = 6.750523e-19, No Iterations 1
DILUPBiCGStab:  Solving for ILambda_2_0, Initial residual = 0.0006597824, Final residual = 4.978894e-19, No Iterations 1
DILUPBiCGStab:  Solving for ILambda_3_0, Initial residual = 0.0004568539, Final residual = 6.492798e-19, No Iterations 1
DILUPBiCGStab:  Solving for ILambda_4_0, Initial residual = 0.000990382, Final residual = 7.424107e-05, No Iterations 4
DILUPBiCGStab:  Solving for ILambda_5_0, Initial residual = 0.0009257358, Final residual = 9.632888e-05, No Iterations 9
DILUPBiCGStab:  Solving for ILambda_6_0, Initial residual = 0.000995344, Final residual = 8.186365e-05, No Iterations 15
DILUPBiCGStab:  Solving for ILambda_7_0, Initial residual = 0.001199643, Final residual = 8.24033e-05, No Iterations 23
DILUPBiCGStab:  Solving for ILambda_8_0, Initial residual = 0.006620354, Final residual = 9.171332e-18, No Iterations 1
DILUPBiCGStab:  Solving for ILambda_9_0, Initial residual = 0.003752136, Final residual = 3.158811e-18, No Iterations 1
DILUPBiCGStab:  Solving for ILambda_10_0, Initial residual = 0.002479418, Final residual = 2.144406e-18, No Iterations 1
DILUPBiCGStab:  Solving for ILambda_11_0, Initial residual = 0.001178033, Final residual = 1.869186e-18, No Iterations 1
DILUPBiCGStab:  Solving for ILambda_12_0, Initial residual = 0.0008511421, Final residual = 7.649592e-05, No Iterations 4
DILUPBiCGStab:  Solving for ILambda_13_0, Initial residual = 0.001049797, Final residual = 5.343874e-05, No Iterations 9
DILUPBiCGStab:  Solving for ILambda_14_0, Initial residual = 0.00133043, Final residual = 7.201143e-05, No Iterations 15
DILUPBiCGStab:  Solving for ILambda_15_0, Initial residual = 0.001818575, Final residual = 0.0001548159, No Iterations 31
Radiation solver iter: 1
DILUPBiCGStab:  Solving for ILambda_7_0, Initial residual = 0.001192547, Final residual = 9.432164e-05, No Iterations 14
DILUPBiCGStab:  Solving for ILambda_8_0, Initial residual = 0.004810999, Final residual = 4.681226e-18, No Iterations 1
DILUPBiCGStab:  Solving for ILambda_9_0, Initial residual = 0.002947413, Final residual = 1.42699e-18, No Iterations 1
DILUPBiCGStab:  Solving for ILambda_10_0, Initial residual = 0.002077644, Final residual = 1.137326e-18, No Iterations 1
DILUPBiCGStab:  Solving for ILambda_11_0, Initial residual = 0.0009024406, Final residual = 6.150262e-19, No Iterations 1
DILUPBiCGStab:  Solving for ILambda_13_0, Initial residual = 0.0008342582, Final residual = 9.168698e-05, No Iterations 4
DILUPBiCGStab:  Solving for ILambda_14_0, Initial residual = 0.001158376, Final residual = 0.0001136621, No Iterations 6
DILUPBiCGStab:  Solving for ILambda_15_0, Initial residual = 0.001705406, Final residual = 9.108225e-05, No Iterations 15
Radiation solver iter: 2
DILUPBiCGStab:  Solving for ILambda_7_0, Initial residual = 0.001139809, Final residual = 0.0001064253, No Iterations 9
DILUPBiCGStab:  Solving for ILambda_8_0, Initial residual = 0.003251457, Final residual = 2.994892e-18, No Iterations 1
DILUPBiCGStab:  Solving for ILambda_9_0, Initial residual = 0.00185781, Final residual = 1.074391e-18, No Iterations 1
DILUPBiCGStab:  Solving for ILambda_10_0, Initial residual = 0.001131718, Final residual = 6.983632e-19, No Iterations 1
DILUPBiCGStab:  Solving for ILambda_14_0, Initial residual = 0.0008913945, Final residual = 9.889561e-05, No Iterations 6
DILUPBiCGStab:  Solving for ILambda_15_0, Initial residual = 0.001457685, Final residual = 9.765492e-05, No Iterations 9
Radiation solver iter: 3
DILUPBiCGStab:  Solving for ILambda_7_0, Initial residual = 0.0009990705, Final residual = 8.456221e-05, No Iterations 6
DILUPBiCGStab:  Solving for ILambda_8_0, Initial residual = 0.002270989, Final residual = 2.247267e-18, No Iterations 1
DILUPBiCGStab:  Solving for ILambda_9_0, Initial residual = 0.001203086, Final residual = 8.597318e-19, No Iterations 1
DILUPBiCGStab:  Solving for ILambda_10_0, Initial residual = 0.0006348893, Final residual = 4.340511e-19, No Iterations 1
DILUPBiCGStab:  Solving for ILambda_15_0, Initial residual = 0.001240829, Final residual = 7.950041e-05, No Iterations 9
Radiation solver iter: 4
DILUPBiCGStab:  Solving for ILambda_8_0, Initial residual = 0.001818921, Final residual = 1.938672e-18, No Iterations 1
DILUPBiCGStab:  Solving for ILambda_9_0, Initial residual = 0.0008654251, Final residual = 4.977593e-19, No Iterations 1
DILUPBiCGStab:  Solving for ILambda_15_0, Initial residual = 0.001077636, Final residual = 7.231519e-05, No Iterations 6
Radiation solver iter: 5
DILUPBiCGStab:  Solving for ILambda_8_0, Initial residual = 0.001510734, Final residual = 1.445501e-18, No Iterations 1
DILUPBiCGStab:  Solving for ILambda_15_0, Initial residual = 0.0009245726, Final residual = 9.561812e-05, No Iterations 4
Radiation solver iter: 6
DILUPBiCGStab:  Solving for ILambda_8_0, Initial residual = 0.001289041, Final residual = 1.313164e-18, No Iterations 1
Radiation solver iter: 7
DILUPBiCGStab:  Solving for ILambda_8_0, Initial residual = 0.001114875, Final residual = 1.019211e-18, No Iterations 1
Radiation solver iter: 8
DILUPBiCGStab:  Solving for ILambda_8_0, Initial residual = 0.0009719693, Final residual = 8.730972e-19, No Iterations 1
GAMG:  Solving for p_rgh, Initial residual = 0.9224227, Final residual = 0.004082275, No Iterations 2
time step continuity errors : sum local = 0.06870829, global = -6.108943e-17, cumulative = 6.468498e-16
rho min/max : 0.5403928 0.8609318
DILUPBiCGStab:  Solving for omega, Initial residual = 0.1742265, Final residual = 0.002875327, No Iterations 1
bounding omega, min: -34.44523 max: 2363.432 average: 31.01053
DILUPBiCGStab:  Solving for k, Initial residual = 0.287928, Final residual = 0.0143842, No Iterations 1
bounding k, min: -0.002718697 max: 0.03308285 average: 0.001409078
ExecutionTime = 1.14 s  ClockTime = 1 s

Time = 5

DILUPBiCGStab:  Solving for h, Initial residual = 0.02263941, Final residual = 0.0003156182, No Iterations 1
limitTemperature limitT Lower limited 0 (0%) of cells, with min limit 250
limitTemperature limitT Upper limited 0 (0%) of cells, with max limit 1400
limitTemperature limitT Unlimited Tmin 439.1781
limitTemperature limitT Unlimited Tmax 524.6308
Radiation solver iter: 0
DILUPBiCGStab:  Solving for ILambda_0_0, Initial residual = 0.0007604821, Final residual = 1.037498e-18, No Iterations 1
DILUPBiCGStab:  Solving for ILambda_1_0, Initial residual = 0.0006488254, Final residual = 5.004887e-19, No Iterations 1
DILUPBiCGStab:  Solving for ILambda_2_0, Initial residual = 0.0005291278, Final residual = 4.599273e-19, No Iterations 1
DILUPBiCGStab:  Solving for ILambda_3_0, Initial residual = 0.0003629986, Final residual = 5.148772e-19, No Iterations 1
DILUPBiCGStab:  Solving for ILambda_4_0, Initial residual = 0.0008853359, Final residual = 4.647174e-05, No Iterations 3
DILUPBiCGStab:  Solving for ILambda_5_0, Initial residual = 0.0009967095, Final residual = 9.12039e-05, No Iterations 6
DILUPBiCGStab:  Solving for ILambda_6_0, Initial residual = 0.001078846, Final residual = 8.845249e-05, No Iterations 12
DILUPBiCGStab:  Solving for ILambda_7_0, Initial residual = 0.001080888, Final residual = 0.0001015512, No Iterations 20
DILUPBiCGStab:  Solving for ILambda_8_0, Initial residual = 0.003732717, Final residual = 4.582469e-18, No Iterations 1
DILUPBiCGStab:  Solving for ILambda_9_0, Initial residual = 0.002161419, Final residual = 1.375971e-18, No Iterations 1
DILUPBiCGStab:  Solving for ILambda_10_0, Initial residual = 0.001319561, Final residual = 9.486724e-19, No Iterations 1
DILUPBiCGStab:  Solving for ILambda_11_0, Initial residual = 0.0007781274, Final residual = 1.100801e-18, No Iterations 1
DILUPBiCGStab:  Solving for ILambda_12_0, Initial residual = 0.0006740825, Final residual = 7.084678e-05, No Iterations 3
DILUPBiCGStab:  Solving for ILambda_13_0, Initial residual = 0.001084268, Final residual = 6.356832e-05, No Iterations 8
DILUPBiCGStab:  Solving for ILambda_14_0, Initial residual = 0.001505537, Final residual = 7.173523e-05, No Iterations 14
DILUPBiCGStab:  Solving for ILambda_15_0, Initial residual = 0.002313153, Final residual = 0.0002241026, No Iterations 23
Radiation solver iter: 1
DILUPBiCGStab:  Solving for ILambda_6_0, Initial residual = 0.0009447801, Final residual = 9.074548e-05, No Iterations 4
DILUPBiCGStab:  Solving for ILambda_7_0, Initial residual = 0.001078695, Final residual = 9.592049e-05, No Iterations 10
DILUPBiCGStab:  Solving for ILambda_8_0, Initial residual = 0.002587886, Final residual = 2.072384e-18, No Iterations 1
DILUPBiCGStab:  Solving for ILambda_9_0, Initial residual = 0.00175873, Final residual = 8.355429e-19, No Iterations 1
DILUPBiCGStab:  Solving for ILambda_10_0, Initial residual = 0.001180442, Final residual = 6.295791e-19, No Iterations 1
DILUPBiCGStab:  Solving for ILambda_13_0, Initial residual = 0.0008843602, Final residual = 8.621759e-05, No Iterations 5
DILUPBiCGStab:  Solving for ILambda_14_0, Initial residual = 0.001207183, Final residual = 9.611683e-05, No Iterations 10
DILUPBiCGStab:  Solving for ILambda_15_0, Initial residual = 0.001819928, Final residual = 0.0001072366, No Iterations 15
Radiation solver iter: 2
DILUPBiCGStab:  Solving for ILambda_7_0, Initial residual = 0.0009441209, Final residual = 9.308514e-05, No Iterations 7
DILUPBiCGStab:  Solving for ILambda_8_0, Initial residual = 0.001873763, Final residual = 1.535449e-18, No Iterations 1
DILUPBiCGStab:  Solving for ILambda_9_0, Initial residual = 0.001100377, Final residual = 7.19468e-19, No Iterations 1
DILUPBiCGStab:  Solving for ILambda_10_0, Initial residual = 0.0005927386, Final residual = 4.042743e-19, No Iterations 1
DILUPBiCGStab:  Solving for ILambda_14_0, Initial residual = 0.0009152713, Final residual = 9.717273e-05, No Iterations 5
DILUPBiCGStab:  Solving for ILambda_15_0, Initial residual = 0.001430256, Final residual = 0.0001281754, No Iterations 7
Radiation solver iter: 3
DILUPBiCGStab:  Solving for ILambda_8_0, Initial residual = 0.001364059, Final residual = 1.211904e-18, No Iterations 1
DILUPBiCGStab:  Solving for ILambda_9_0, Initial residual = 0.0007165657, Final residual = 4.078934e-19, No Iterations 1
DILUPBiCGStab:  Solving for ILambda_15_0, Initial residual = 0.001133964, Final residual = 0.0001048865, No Iterations 6
Radiation solver iter: 4
DILUPBiCGStab:  Solving for ILambda_8_0, Initial residual = 0.00106981, Final residual = 9.567678e-19, No Iterations 1
DILUPBiCGStab:  Solving for ILambda_15_0, Initial residual = 0.0009665435, Final residual = 7.710495e-05, No Iterations 7
Radiation solver iter: 5
DILUPBiCGStab:  Solving for ILambda_8_0, Initial residual = 0.0008708688, Final residual = 7.182952e-19, No Iterations 1
GAMG:  Solving for p_rgh, Initial residual = 0.5851643, Final residual = 0.002890851, No Iterations 2
time step continuity errors : sum local = 0.05252359, global = -3.320702e-17, cumulative = 6.136428e-16
rho min/max : 0.5403532 0.8610702
DILUPBiCGStab:  Solving for omega, Initial residual = 0.1569841, Final residual = 0.004056208, No Iterations 1
bounding omega, min: -20.1267 max: 2051.903 average: 29.33138
DILUPBiCGStab:  Solving for k, Initial residual = 0.267339, Final residual = 0.01568256, No Iterations 1
bounding k, min: -0.001667347 max: 0.1192669 average: 0.002185652
ExecutionTime = 1.26 s  ClockTime = 1 s

Time = 6

DILUPBiCGStab:  Solving for h, Initial residual = 0.02500979, Final residual = 0.0001527313, No Iterations 1
limitTemperature limitT Lower limited 0 (0%) of cells, with min limit 250
limitTemperature limitT Upper limited 0 (0%) of cells, with max limit 1400
limitTemperature limitT Unlimited Tmin 439.0139
limitTemperature limitT Unlimited Tmax 515.4185
Radiation solver iter: 0
DILUPBiCGStab:  Solving for ILambda_0_0, Initial residual = 0.0007338179, Final residual = 1.980048e-18, No Iterations 1
DILUPBiCGStab:  Solving for ILambda_1_0, Initial residual = 0.000623203, Final residual = 1.015522e-18, No Iterations 1
DILUPBiCGStab:  Solving for ILambda_2_0, Initial residual = 0.0004999524, Final residual = 8.25042e-19, No Iterations 1
DILUPBiCGStab:  Solving for ILambda_3_0, Initial residual = 0.0003453072, Final residual = 6.994476e-19, No Iterations 1
DILUPBiCGStab:  Solving for ILambda_4_0, Initial residual = 0.000651925, Final residual = 6.332523e-05, No Iterations 3
DILUPBiCGStab:  Solving for ILambda_5_0, Initial residual = 0.0008605031, Final residual = 7.546844e-05, No Iterations 7
DILUPBiCGStab:  Solving for ILambda_6_0, Initial residual = 0.0008227759, Final residual = 9.974013e-05, No Iterations 10
DILUPBiCGStab:  Solving for ILambda_7_0, Initial residual = 0.0009500488, Final residual = 9.175877e-05, No Iterations 26
DILUPBiCGStab:  Solving for ILambda_8_0, Initial residual = 0.002915116, Final residual = 4.870451e-18, No Iterations 1
DILUPBiCGStab:  Solving for ILambda_9_0, Initial residual = 0.001681112, Final residual = 1.85833e-18, No Iterations 1
DILUPBiCGStab:  Solving for ILambda_10_0, Initial residual = 0.001082711, Final residual = 1.4357e-18, No Iterations 1
DILUPBiCGStab:  Solving for ILambda_11_0, Initial residual = 0.0009795747, Final residual = 1.622231e-18, No Iterations 1
DILUPBiCGStab:  Solving for ILambda_12_0, Initial residual = 0.0009460286, Final residual = 7.422863e-05, No Iterations 4
DILUPBiCGStab:  Solving for ILambda_13_0, Initial residual = 0.001433198, Final residual = 0.0001266412, No Iterations 8
DILUPBiCGStab:  Solving for ILambda_14_0, Initial residual = 0.002100969, Final residual = 0.0001979529, No Iterations 12
DILUPBiCGStab:  Solving for ILambda_15_0, Initial residual = 0.003509723, Final residual = 0.0002913068, No Iterations 18
Radiation solver iter: 1
DILUPBiCGStab:  Solving for ILambda_8_0, Initial residual = 0.002064639, Final residual = 2.091819e-18, No Iterations 1
DILUPBiCGStab:  Solving for ILambda_9_0, Initial residual = 0.001361629, Final residual = 7.203644e-19, No Iterations 1
DILUPBiCGStab:  Solving for ILambda_10_0, Initial residual = 0.0008995439, Final residual = 4.588882e-19, No Iterations 1
DILUPBiCGStab:  Solving for ILambda_13_0, Initial residual = 0.001070235, Final residual = 0.000106514, No Iterations 2
DILUPBiCGStab:  Solving for ILambda_14_0, Initial residual = 0.001550537, Final residual = 0.0001510331, No Iterations 5
DILUPBiCGStab:  Solving for ILambda_15_0, Initial residual = 0.002475071, Final residual = 0.0001887172, No Iterations 8
Radiation solver iter: 2
DILUPBiCGStab:  Solving for ILambda_8_0, Initial residual = 0.001571755, Final residual = 1.476458e-18, No Iterations 1
DILUPBiCGStab:  Solving for ILambda_9_0, Initial residual = 0.0008834386, Final residual = 4.945615e-19, No Iterations 1
DILUPBiCGStab:  Solving for ILambda_13_0, Initial residual = 0.0006128101, Final residual = 7.471558e-05, No Iterations 2
DILUPBiCGStab:  Solving for ILambda_14_0, Initial residual = 0.00101872, Final residual = 9.545999e-05, No Iterations 3
DILUPBiCGStab:  Solving for ILambda_15_0, Initial residual = 0.001752663, Final residual = 0.0001403232, No Iterations 8
Radiation solver iter: 3
DILUPBiCGStab:  Solving for ILambda_8_0, Initial residual = 0.001194873, Final residual = 1.211538e-18, No Iterations 1
DILUPBiCGStab:  Solving for ILambda_14_0, Initial residual = 0.000708554, Final residual = 8.03088e-05, No Iterations 3
DILUPBiCGStab:  Solving for ILambda_15_0, Initial residual = 0.001227718, Final residual = 0.0001023912, No Iterations 6
Radiation solver iter: 4
DILUPBiCGStab:  Solving for ILambda_8_0, Initial residual = 0.000986563, Final residual = 9.634443e-19, No Iterations 1
DILUPBiCGStab:  Solving for ILambda_15_0, Initial residual = 0.0009786394, Final residual = 9.009e-05, No Iterations 4
GAMG:  Solving for p_rgh, Initial residual = 0.2808679, Final residual = 0.0008773257, No Iterations 2
time step continuity errors : sum local = 0.02101973, global = -2.147005e-18, cumulative = 6.114958e-16
rho min/max : 0.5401417 0.8611924
DILUPBiCGStab:  Solving for omega, Initial residual = 0.123558, Final residual = 0.003604612, No Iterations 1
bounding omega, min: -0.3622974 max: 1425.339 average: 28.14975
DILUPBiCGStab:  Solving for k, Initial residual = 0.2005109, Final residual = 0.001255139, No Iterations 1
bounding k, min: -0.0004175926 max: 0.2152262 average: 0.003061341
ExecutionTime = 1.36 s  ClockTime = 1 s

Time = 7

DILUPBiCGStab:  Solving for h, Initial residual = 0.02498906, Final residual = 0.0003475773, No Iterations 1
limitTemperature limitT Lower limited 0 (0%) of cells, with min limit 250
limitTemperature limitT Upper limited 0 (0%) of cells, with max limit 1400
limitTemperature limitT Unlimited Tmin 439.1492
limitTemperature limitT Unlimited Tmax 512.3784
Radiation solver iter: 0
DILUPBiCGStab:  Solving for ILambda_0_0, Initial residual = 0.0007165087, Final residual = 9.978832e-19, No Iterations 1
DILUPBiCGStab:  Solving for ILambda_1_0, Initial residual = 0.0006105778, Final residual = 5.270659e-19, No Iterations 1
DILUPBiCGStab:  Solving for ILambda_2_0, Initial residual = 0.0005052613, Final residual = 4.284148e-19, No Iterations 1
DILUPBiCGStab:  Solving for ILambda_3_0, Initial residual = 0.0003824213, Final residual = 4.589354e-19, No Iterations 1
DILUPBiCGStab:  Solving for ILambda_4_0, Initial residual = 0.000596172, Final residual = 7.738569e-05, No Iterations 3
DILUPBiCGStab:  Solving for ILambda_5_0, Initial residual = 0.0007432171, Final residual = 8.785336e-05, No Iterations 8
DILUPBiCGStab:  Solving for ILambda_6_0, Initial residual = 0.0008308187, Final residual = 5.780678e-05, No Iterations 13
DILUPBiCGStab:  Solving for ILambda_7_0, Initial residual = 0.001008348, Final residual = 9.819646e-05, No Iterations 18
DILUPBiCGStab:  Solving for ILambda_8_0, Initial residual = 0.003229388, Final residual = 4.281555e-18, No Iterations 1
DILUPBiCGStab:  Solving for ILambda_9_0, Initial residual = 0.001851032, Final residual = 1.505094e-18, No Iterations 1
DILUPBiCGStab:  Solving for ILambda_10_0, Initial residual = 0.001200503, Final residual = 1.187662e-18, No Iterations 1
DILUPBiCGStab:  Solving for ILambda_11_0, Initial residual = 0.0008627894, Final residual = 9.309296e-19, No Iterations 1
DILUPBiCGStab:  Solving for ILambda_12_0, Initial residual = 0.0007254534, Final residual = 3.637274e-05, No Iterations 4
DILUPBiCGStab:  Solving for ILambda_13_0, Initial residual = 0.0007960912, Final residual = 5.743144e-05, No Iterations 9
DILUPBiCGStab:  Solving for ILambda_14_0, Initial residual = 0.001138033, Final residual = 0.000109926, No Iterations 15
DILUPBiCGStab:  Solving for ILambda_15_0, Initial residual = 0.001841702, Final residual = 7.215162e-05, No Iterations 28
Radiation solver iter: 1
DILUPBiCGStab:  Solving for ILambda_7_0, Initial residual = 0.000972388, Final residual = 9.928696e-05, No Iterations 9
DILUPBiCGStab:  Solving for ILambda_8_0, Initial residual = 0.002303264, Final residual = 2.176117e-18, No Iterations 1
DILUPBiCGStab:  Solving for ILambda_9_0, Initial residual = 0.001544142, Final residual = 8.256512e-19, No Iterations 1
DILUPBiCGStab:  Solving for ILambda_10_0, Initial residual = 0.001053924, Final residual = 5.931601e-19, No Iterations 1
DILUPBiCGStab:  Solving for ILambda_14_0, Initial residual = 0.001254366, Final residual = 8.122935e-05, No Iterations 10
DILUPBiCGStab:  Solving for ILambda_15_0, Initial residual = 0.002059469, Final residual = 0.0001976054, No Iterations 13
Radiation solver iter: 2
DILUPBiCGStab:  Solving for ILambda_8_0, Initial residual = 0.00166861, Final residual = 1.415947e-18, No Iterations 1
DILUPBiCGStab:  Solving for ILambda_9_0, Initial residual = 0.000913403, Final residual = 5.599538e-19, No Iterations 1
DILUPBiCGStab:  Solving for ILambda_10_0, Initial residual = 0.0005142857, Final residual = 3.575648e-19, No Iterations 1
DILUPBiCGStab:  Solving for ILambda_14_0, Initial residual = 0.001031776, Final residual = 9.384767e-05, No Iterations 5
DILUPBiCGStab:  Solving for ILambda_15_0, Initial residual = 0.001883188, Final residual = 0.0001676054, No Iterations 9
Radiation solver iter: 3
DILUPBiCGStab:  Solving for ILambda_8_0, Initial residual = 0.001242321, Final residual = 1.160683e-18, No Iterations 1
DILUPBiCGStab:  Solving for ILambda_14_0, Initial residual = 0.0008193593, Final residual = 8.301715e-05, No Iterations 3
DILUPBiCGStab:  Solving for ILambda_15_0, Initial residual = 0.001606162, Final residual = 0.0001503418, No Iterations 8
Radiation solver iter: 4
DILUPBiCGStab:  Solving for ILambda_8_0, Initial residual = 0.001018519, Final residual = 8.885025e-19, No Iterations 1
DILUPBiCGStab:  Solving for ILambda_15_0, Initial residual = 0.001440614, Final residual = 0.0001407252, No Iterations 5
Radiation solver iter: 5
DILUPBiCGStab:  Solving for ILambda_8_0, Initial residual = 0.0008636192, Final residual = 7.808306e-19, No Iterations 1
DILUPBiCGStab:  Solving for ILambda_15_0, Initial residual = 0.001292732, Final residual = 7.98172e-05, No Iterations 5
Radiation solver iter: 6
DILUPBiCGStab:  Solving for ILambda_15_0, Initial residual = 0.001152771, Final residual = 5.461523e-05, No Iterations 5
Radiation solver iter: 7
DILUPBiCGStab:  Solving for ILambda_15_0, Initial residual = 0.001023516, Final residual = 8.114666e-05, No Iterations 3
Radiation solver iter: 8
DILUPBiCGStab:  Solving for ILambda_15_0, Initial residual = 0.0009117717, Final residual = 9.068775e-05, No Iterations 3
GAMG:  Solving for p_rgh, Initial residual = 0.2238284, Final residual = 0.001556369, No Iterations 2
time step continuity errors : sum local = 0.02769141, global = 1.040571e-17, cumulative = 6.219015e-16
rho min/max : 0.5399414 0.8612858
DILUPBiCGStab:  Solving for omega, Initial residual = 0.08936072, Final residual = 0.00387964, No Iterations 1
bounding omega, min: -10.13025 max: 1234.394 average: 27.99853
DILUPBiCGStab:  Solving for k, Initial residual = 0.1496451, Final residual = 0.01315529, No Iterations 1
bounding k, min: -0.00190153 max: 0.2142409 average: 0.003728569
ExecutionTime = 1.48 s  ClockTime = 2 s

Time = 8

DILUPBiCGStab:  Solving for h, Initial residual = 0.02167737, Final residual = 0.0001709127, No Iterations 1
limitTemperature limitT Lower limited 0 (0%) of cells, with min limit 250
limitTemperature limitT Upper limited 0 (0%) of cells, with max limit 1400
limitTemperature limitT Unlimited Tmin 439.2654
limitTemperature limitT Unlimited Tmax 505.1414
Radiation solver iter: 0
DILUPBiCGStab:  Solving for ILambda_0_0, Initial residual = 0.0007390663, Final residual = 1.456335e-18, No Iterations 1
DILUPBiCGStab:  Solving for ILambda_1_0, Initial residual = 0.0006037895, Final residual = 7.25246e-19, No Iterations 1
DILUPBiCGStab:  Solving for ILambda_2_0, Initial residual = 0.0004817654, Final residual = 5.195392e-19, No Iterations 1
DILUPBiCGStab:  Solving for ILambda_3_0, Initial residual = 0.0003421829, Final residual = 4.749047e-19, No Iterations 1
DILUPBiCGStab:  Solving for ILambda_4_0, Initial residual = 0.0005036473, Final residual = 9.602318e-05, No Iterations 2
[...]
Radiation solver iter: 5
DILUPBiCGStab:  Solving for ILambda_8_0, Initial residual = 0.0008400429, Final residual = 8.615301e-19, No Iterations 1
GAMG:  Solving for p_rgh, Initial residual = 0.02492262, Final residual = 6.475894e-05, No Iterations 2
time step continuity errors : sum local = 0.0005106069, global = 6.887956e-17, cumulative = 1.615818e-15
rho min/max : 0.5443746 0.8674003
DILUPBiCGStab:  Solving for omega, Initial residual = 0.001479808, Final residual = 7.11909e-05, No Iterations 1
DILUPBiCGStab:  Solving for k, Initial residual = 0.004215208, Final residual = 0.0001722408, No Iterations 1
ExecutionTime = 33.91 s  ClockTime = 34 s

Time = 397

DILUPBiCGStab:  Solving for h, Initial residual = 0.001129457, Final residual = 2.415072e-06, No Iterations 1
limitTemperature limitT Lower limited 0 (0%) of cells, with min limit 250
limitTemperature limitT Upper limited 0 (0%) of cells, with max limit 1400
limitTemperature limitT Unlimited Tmin 431.6832
limitTemperature limitT Unlimited Tmax 532.2167
Radiation solver iter: 0
DILUPBiCGStab:  Solving for ILambda_0_0, Initial residual = 0.0001694577, Final residual = 3.784229e-19, No Iterations 1
DILUPBiCGStab:  Solving for ILambda_1_0, Initial residual = 0.0001442497, Final residual = 2.388954e-19, No Iterations 1
DILUPBiCGStab:  Solving for ILambda_2_0, Initial residual = 0.0001347624, Final residual = 2.382885e-19, No Iterations 1
DILUPBiCGStab:  Solving for ILambda_3_0, Initial residual = 0.0001589919, Final residual = 3.913586e-19, No Iterations 1
DILUPBiCGStab:  Solving for ILambda_4_0, Initial residual = 0.0005517919, Final residual = 9.607123e-05, No Iterations 2
DILUPBiCGStab:  Solving for ILambda_5_0, Initial residual = 0.0008857249, Final residual = 8.171941e-05, No Iterations 6
DILUPBiCGStab:  Solving for ILambda_6_0, Initial residual = 0.000948466, Final residual = 5.980036e-05, No Iterations 11
DILUPBiCGStab:  Solving for ILambda_7_0, Initial residual = 0.0008875114, Final residual = 9.190727e-05, No Iterations 18
DILUPBiCGStab:  Solving for ILambda_8_0, Initial residual = 0.003216298, Final residual = 9.997155e-18, No Iterations 1
DILUPBiCGStab:  Solving for ILambda_9_0, Initial residual = 0.002235161, Final residual = 3.632518e-18, No Iterations 1
DILUPBiCGStab:  Solving for ILambda_10_0, Initial residual = 0.001615768, Final residual = 1.952477e-18, No Iterations 1
DILUPBiCGStab:  Solving for ILambda_11_0, Initial residual = 0.001086227, Final residual = 1.568111e-18, No Iterations 1
DILUPBiCGStab:  Solving for ILambda_12_0, Initial residual = 0.0004267862, Final residual = 7.878071e-05, No Iterations 3
DILUPBiCGStab:  Solving for ILambda_13_0, Initial residual = 0.0006125792, Final residual = 4.240183e-05, No Iterations 7
DILUPBiCGStab:  Solving for ILambda_14_0, Initial residual = 0.0007160725, Final residual = 9.248069e-05, No Iterations 7
DILUPBiCGStab:  Solving for ILambda_15_0, Initial residual = 0.000892802, Final residual = 9.504872e-05, No Iterations 12
Radiation solver iter: 1
DILUPBiCGStab:  Solving for ILambda_8_0, Initial residual = 0.002285048, Final residual = 4.50012e-18, No Iterations 1
DILUPBiCGStab:  Solving for ILambda_9_0, Initial residual = 0.001819207, Final residual = 1.505875e-18, No Iterations 1
DILUPBiCGStab:  Solving for ILambda_10_0, Initial residual = 0.001335513, Final residual = 8.407613e-19, No Iterations 1
DILUPBiCGStab:  Solving for ILambda_11_0, Initial residual = 0.00054043, Final residual = 2.758342e-19, No Iterations 1
Radiation solver iter: 2
DILUPBiCGStab:  Solving for ILambda_8_0, Initial residual = 0.001677401, Final residual = 2.316666e-18, No Iterations 1
DILUPBiCGStab:  Solving for ILambda_9_0, Initial residual = 0.001351042, Final residual = 9.377836e-19, No Iterations 1
DILUPBiCGStab:  Solving for ILambda_10_0, Initial residual = 0.0008340361, Final residual = 4.682822e-19, No Iterations 1
Radiation solver iter: 3
DILUPBiCGStab:  Solving for ILambda_8_0, Initial residual = 0.001159477, Final residual = 1.410213e-18, No Iterations 1
DILUPBiCGStab:  Solving for ILambda_9_0, Initial residual = 0.0009254571, Final residual = 6.195155e-19, No Iterations 1
Radiation solver iter: 4
DILUPBiCGStab:  Solving for ILambda_8_0, Initial residual = 0.0008780503, Final residual = 9.50872e-19, No Iterations 1
GAMG:  Solving for p_rgh, Initial residual = 0.02299109, Final residual = 6.563132e-05, No Iterations 2
time step continuity errors : sum local = 0.0005022356, global = 6.201379e-18, cumulative = 1.62202e-15
rho min/max : 0.5443838 0.8674148
DILUPBiCGStab:  Solving for omega, Initial residual = 0.001418166, Final residual = 6.711624e-05, No Iterations 1
DILUPBiCGStab:  Solving for k, Initial residual = 0.004184021, Final residual = 0.0001673583, No Iterations 1
ExecutionTime = 33.98 s  ClockTime = 34 s

Time = 398

DILUPBiCGStab:  Solving for h, Initial residual = 0.001122928, Final residual = 2.383623e-06, No Iterations 1
limitTemperature limitT Lower limited 0 (0%) of cells, with min limit 250
limitTemperature limitT Upper limited 0 (0%) of cells, with max limit 1400
limitTemperature limitT Unlimited Tmin 431.683
limitTemperature limitT Unlimited Tmax 532.3686
Radiation solver iter: 0
DILUPBiCGStab:  Solving for ILambda_0_0, Initial residual = 0.0001640078, Final residual = 3.413569e-19, No Iterations 1
DILUPBiCGStab:  Solving for ILambda_1_0, Initial residual = 0.0001374043, Final residual = 2.186261e-19, No Iterations 1
DILUPBiCGStab:  Solving for ILambda_2_0, Initial residual = 0.0001271565, Final residual = 2.135899e-19, No Iterations 1
DILUPBiCGStab:  Solving for ILambda_3_0, Initial residual = 0.0001508477, Final residual = 3.760441e-19, No Iterations 1
DILUPBiCGStab:  Solving for ILambda_4_0, Initial residual = 0.0006036683, Final residual = 7.646102e-05, No Iterations 3
DILUPBiCGStab:  Solving for ILambda_5_0, Initial residual = 0.0009331064, Final residual = 9.855017e-05, No Iterations 6
DILUPBiCGStab:  Solving for ILambda_6_0, Initial residual = 0.001009002, Final residual = 9.448085e-05, No Iterations 9
DILUPBiCGStab:  Solving for ILambda_7_0, Initial residual = 0.0009907109, Final residual = 3.178735e-05, No Iterations 22
DILUPBiCGStab:  Solving for ILambda_8_0, Initial residual = 0.003838648, Final residual = 1.307007e-17, No Iterations 1
DILUPBiCGStab:  Solving for ILambda_9_0, Initial residual = 0.002583307, Final residual = 4.349266e-18, No Iterations 1
DILUPBiCGStab:  Solving for ILambda_10_0, Initial residual = 0.00183093, Final residual = 2.549819e-18, No Iterations 1
DILUPBiCGStab:  Solving for ILambda_11_0, Initial residual = 0.000833508, Final residual = 1.606692e-18, No Iterations 1
DILUPBiCGStab:  Solving for ILambda_12_0, Initial residual = 0.0004101503, Final residual = 1.746823e-05, No Iterations 4
DILUPBiCGStab:  Solving for ILambda_13_0, Initial residual = 0.0005328421, Final residual = 9.385608e-05, No Iterations 6
DILUPBiCGStab:  Solving for ILambda_14_0, Initial residual = 0.0007001942, Final residual = 9.21767e-05, No Iterations 8
DILUPBiCGStab:  Solving for ILambda_15_0, Initial residual = 0.0008711167, Final residual = 9.74757e-05, No Iterations 9
Radiation solver iter: 1
DILUPBiCGStab:  Solving for ILambda_6_0, Initial residual = 0.000844148, Final residual = 7.537807e-05, No Iterations 4
DILUPBiCGStab:  Solving for ILambda_8_0, Initial residual = 0.003379495, Final residual = 6.787407e-18, No Iterations 1
DILUPBiCGStab:  Solving for ILambda_9_0, Initial residual = 0.002552897, Final residual = 2.155058e-18, No Iterations 1
DILUPBiCGStab:  Solving for ILambda_10_0, Initial residual = 0.001747116, Final residual = 1.068725e-18, No Iterations 1
Radiation solver iter: 2
DILUPBiCGStab:  Solving for ILambda_8_0, Initial residual = 0.002927028, Final residual = 3.972169e-18, No Iterations 1
DILUPBiCGStab:  Solving for ILambda_9_0, Initial residual = 0.002007451, Final residual = 1.473006e-18, No Iterations 1
DILUPBiCGStab:  Solving for ILambda_10_0, Initial residual = 0.001145977, Final residual = 6.559763e-19, No Iterations 1
Radiation solver iter: 3
DILUPBiCGStab:  Solving for ILambda_8_0, Initial residual = 0.002368034, Final residual = 3.220841e-18, No Iterations 1
DILUPBiCGStab:  Solving for ILambda_9_0, Initial residual = 0.001512534, Final residual = 1.061606e-18, No Iterations 1
DILUPBiCGStab:  Solving for ILambda_10_0, Initial residual = 0.0007674662, Final residual = 4.366346e-19, No Iterations 1
Radiation solver iter: 4
DILUPBiCGStab:  Solving for ILambda_8_0, Initial residual = 0.002054037, Final residual = 2.400804e-18, No Iterations 1
DILUPBiCGStab:  Solving for ILambda_9_0, Initial residual = 0.001171899, Final residual = 7.408097e-19, No Iterations 1
Radiation solver iter: 5
DILUPBiCGStab:  Solving for ILambda_8_0, Initial residual = 0.001841124, Final residual = 1.930226e-18, No Iterations 1
DILUPBiCGStab:  Solving for ILambda_9_0, Initial residual = 0.0009250949, Final residual = 6.008324e-19, No Iterations 1
Radiation solver iter: 6
DILUPBiCGStab:  Solving for ILambda_8_0, Initial residual = 0.001657484, Final residual = 1.717999e-18, No Iterations 1
Radiation solver iter: 7
DILUPBiCGStab:  Solving for ILambda_8_0, Initial residual = 0.001488102, Final residual = 1.308227e-18, No Iterations 1
Radiation solver iter: 8
DILUPBiCGStab:  Solving for ILambda_8_0, Initial residual = 0.001327929, Final residual = 1.127087e-18, No Iterations 1
Radiation solver iter: 9
DILUPBiCGStab:  Solving for ILambda_8_0, Initial residual = 0.001176188, Final residual = 9.281504e-19, No Iterations 1
Radiation solver iter: 10
DILUPBiCGStab:  Solving for ILambda_8_0, Initial residual = 0.001033342, Final residual = 7.980056e-19, No Iterations 1
Radiation solver iter: 11
DILUPBiCGStab:  Solving for ILambda_8_0, Initial residual = 0.0008992324, Final residual = 7.157854e-19, No Iterations 1
GAMG:  Solving for p_rgh, Initial residual = 0.02456131, Final residual = 6.170006e-05, No Iterations 2
time step continuity errors : sum local = 0.0004715123, global = 1.921614e-17, cumulative = 1.641236e-15
rho min/max : 0.544393 0.8674295
DILUPBiCGStab:  Solving for omega, Initial residual = 0.001525219, Final residual = 7.187606e-05, No Iterations 1
DILUPBiCGStab:  Solving for k, Initial residual = 0.004180001, Final residual = 0.0001629624, No Iterations 1
ExecutionTime = 34.05 s  ClockTime = 34 s

Time = 399

DILUPBiCGStab:  Solving for h, Initial residual = 0.001116684, Final residual = 2.310494e-06, No Iterations 1
limitTemperature limitT Lower limited 0 (0%) of cells, with min limit 250
limitTemperature limitT Upper limited 0 (0%) of cells, with max limit 1400
limitTemperature limitT Unlimited Tmin 431.6828
limitTemperature limitT Unlimited Tmax 532.5248
Radiation solver iter: 0
DILUPBiCGStab:  Solving for ILambda_0_0, Initial residual = 0.0001558516, Final residual = 3.365925e-19, No Iterations 1
DILUPBiCGStab:  Solving for ILambda_1_0, Initial residual = 0.0001306516, Final residual = 2.097449e-19, No Iterations 1
DILUPBiCGStab:  Solving for ILambda_2_0, Initial residual = 0.0001240059, Final residual = 2.357087e-19, No Iterations 1
DILUPBiCGStab:  Solving for ILambda_3_0, Initial residual = 0.0001574679, Final residual = 4.13679e-19, No Iterations 1
DILUPBiCGStab:  Solving for ILambda_4_0, Initial residual = 0.0005901713, Final residual = 3.34745e-05, No Iterations 4
DILUPBiCGStab:  Solving for ILambda_5_0, Initial residual = 0.0009493551, Final residual = 9.503002e-05, No Iterations 6
DILUPBiCGStab:  Solving for ILambda_6_0, Initial residual = 0.0008631949, Final residual = 8.706015e-05, No Iterations 11
DILUPBiCGStab:  Solving for ILambda_7_0, Initial residual = 0.0009921174, Final residual = 9.792895e-05, No Iterations 20
DILUPBiCGStab:  Solving for ILambda_8_0, Initial residual = 0.003265444, Final residual = 8.871201e-18, No Iterations 1
DILUPBiCGStab:  Solving for ILambda_9_0, Initial residual = 0.002297565, Final residual = 2.842087e-18, No Iterations 1
DILUPBiCGStab:  Solving for ILambda_10_0, Initial residual = 0.001556713, Final residual = 1.716255e-18, No Iterations 1
DILUPBiCGStab:  Solving for ILambda_11_0, Initial residual = 0.001163676, Final residual = 1.464101e-18, No Iterations 1
DILUPBiCGStab:  Solving for ILambda_12_0, Initial residual = 0.0003555751, Final residual = 6.144647e-05, No Iterations 3
DILUPBiCGStab:  Solving for ILambda_13_0, Initial residual = 0.0005298756, Final residual = 9.228968e-05, No Iterations 5
DILUPBiCGStab:  Solving for ILambda_14_0, Initial residual = 0.0006468909, Final residual = 9.387418e-05, No Iterations 7
DILUPBiCGStab:  Solving for ILambda_15_0, Initial residual = 0.0008280785, Final residual = 9.985904e-05, No Iterations 11
Radiation solver iter: 1
DILUPBiCGStab:  Solving for ILambda_8_0, Initial residual = 0.002421845, Final residual = 4.054568e-18, No Iterations 1
DILUPBiCGStab:  Solving for ILambda_9_0, Initial residual = 0.001919446, Final residual = 1.350097e-18, No Iterations 1
DILUPBiCGStab:  Solving for ILambda_10_0, Initial residual = 0.00129418, Final residual = 7.289918e-19, No Iterations 1
DILUPBiCGStab:  Solving for ILambda_11_0, Initial residual = 0.0005950016, Final residual = 2.751878e-19, No Iterations 1
Radiation solver iter: 2
DILUPBiCGStab:  Solving for ILambda_8_0, Initial residual = 0.001854055, Final residual = 2.335965e-18, No Iterations 1
DILUPBiCGStab:  Solving for ILambda_9_0, Initial residual = 0.001441553, Final residual = 1.02133e-18, No Iterations 1
DILUPBiCGStab:  Solving for ILambda_10_0, Initial residual = 0.0007819171, Final residual = 4.117183e-19, No Iterations 1
Radiation solver iter: 3
DILUPBiCGStab:  Solving for ILambda_8_0, Initial residual = 0.001301071, Final residual = 1.457989e-18, No Iterations 1
DILUPBiCGStab:  Solving for ILambda_9_0, Initial residual = 0.0009929608, Final residual = 5.751231e-19, No Iterations 1
Radiation solver iter: 4
DILUPBiCGStab:  Solving for ILambda_8_0, Initial residual = 0.0009999383, Final residual = 9.66992e-19, No Iterations 1
GAMG:  Solving for p_rgh, Initial residual = 0.02392753, Final residual = 8.887787e-05, No Iterations 2
time step continuity errors : sum local = 0.0006217038, global = 4.254291e-17, cumulative = 1.683779e-15
rho min/max : 0.5444024 0.8674444
DILUPBiCGStab:  Solving for omega, Initial residual = 0.001649099, Final residual = 8.164422e-05, No Iterations 1
DILUPBiCGStab:  Solving for k, Initial residual = 0.004189436, Final residual = 0.0001821078, No Iterations 1
ExecutionTime = 34.13 s  ClockTime = 34 s

Time = 400

DILUPBiCGStab:  Solving for h, Initial residual = 0.001115118, Final residual = 2.32402e-06, No Iterations 1
limitTemperature limitT Lower limited 0 (0%) of cells, with min limit 250
limitTemperature limitT Upper limited 0 (0%) of cells, with max limit 1400
limitTemperature limitT Unlimited Tmin 431.6827
limitTemperature limitT Unlimited Tmax 532.6306
Radiation solver iter: 0
DILUPBiCGStab:  Solving for ILambda_0_0, Initial residual = 0.0001482985, Final residual = 3.111193e-19, No Iterations 1
DILUPBiCGStab:  Solving for ILambda_1_0, Initial residual = 0.0001233722, Final residual = 1.986629e-19, No Iterations 1
DILUPBiCGStab:  Solving for ILambda_2_0, Initial residual = 0.0001167151, Final residual = 1.846527e-19, No Iterations 1
DILUPBiCGStab:  Solving for ILambda_3_0, Initial residual = 0.0001388304, Final residual = 3.243157e-19, No Iterations 1
DILUPBiCGStab:  Solving for ILambda_4_0, Initial residual = 0.0005458422, Final residual = 8.273049e-05, No Iterations 2
DILUPBiCGStab:  Solving for ILambda_5_0, Initial residual = 0.0009341973, Final residual = 5.159675e-05, No Iterations 7
DILUPBiCGStab:  Solving for ILambda_6_0, Initial residual = 0.0009484022, Final residual = 7.225709e-05, No Iterations 10
DILUPBiCGStab:  Solving for ILambda_7_0, Initial residual = 0.001057608, Final residual = 3.636789e-05, No Iterations 19
DILUPBiCGStab:  Solving for ILambda_8_0, Initial residual = 0.00384416, Final residual = 1.431149e-17, No Iterations 1
DILUPBiCGStab:  Solving for ILambda_9_0, Initial residual = 0.00257381, Final residual = 4.734392e-18, No Iterations 1
DILUPBiCGStab:  Solving for ILambda_10_0, Initial residual = 0.001768153, Final residual = 2.866474e-18, No Iterations 1
DILUPBiCGStab:  Solving for ILambda_11_0, Initial residual = 0.0008419245, Final residual = 1.749469e-18, No Iterations 1
DILUPBiCGStab:  Solving for ILambda_12_0, Initial residual = 0.0003901588, Final residual = 8.637933e-05, No Iterations 2
DILUPBiCGStab:  Solving for ILambda_13_0, Initial residual = 0.0005567118, Final residual = 6.966044e-05, No Iterations 7
DILUPBiCGStab:  Solving for ILambda_14_0, Initial residual = 0.0006598129, Final residual = 7.025254e-05, No Iterations 9
DILUPBiCGStab:  Solving for ILambda_15_0, Initial residual = 0.0008443253, Final residual = 7.998909e-05, No Iterations 12
Radiation solver iter: 1
DILUPBiCGStab:  Solving for ILambda_7_0, Initial residual = 0.0007853651, Final residual = 6.180604e-05, No Iterations 8
DILUPBiCGStab:  Solving for ILambda_8_0, Initial residual = 0.003237922, Final residual = 6.945968e-18, No Iterations 1
DILUPBiCGStab:  Solving for ILambda_9_0, Initial residual = 0.002477145, Final residual = 2.154798e-18, No Iterations 1
DILUPBiCGStab:  Solving for ILambda_10_0, Initial residual = 0.001709508, Final residual = 1.214199e-18, No Iterations 1
Radiation solver iter: 2
DILUPBiCGStab:  Solving for ILambda_8_0, Initial residual = 0.002719734, Final residual = 3.918379e-18, No Iterations 1
DILUPBiCGStab:  Solving for ILambda_9_0, Initial residual = 0.001921871, Final residual = 1.411308e-18, No Iterations 1
DILUPBiCGStab:  Solving for ILambda_10_0, Initial residual = 0.001100225, Final residual = 8.520786e-19, No Iterations 1
Radiation solver iter: 3
DILUPBiCGStab:  Solving for ILambda_8_0, Initial residual = 0.002152851, Final residual = 2.653172e-18, No Iterations 1
DILUPBiCGStab:  Solving for ILambda_9_0, Initial residual = 0.001407136, Final residual = 1.053074e-18, No Iterations 1
DILUPBiCGStab:  Solving for ILambda_10_0, Initial residual = 0.0007355895, Final residual = 4.224232e-19, No Iterations 1
Radiation solver iter: 4
DILUPBiCGStab:  Solving for ILambda_8_0, Initial residual = 0.001852769, Final residual = 2.1275e-18, No Iterations 1
DILUPBiCGStab:  Solving for ILambda_9_0, Initial residual = 0.001078304, Final residual = 6.686876e-19, No Iterations 1
Radiation solver iter: 5
DILUPBiCGStab:  Solving for ILambda_8_0, Initial residual = 0.001629558, Final residual = 1.838237e-18, No Iterations 1
DILUPBiCGStab:  Solving for ILambda_9_0, Initial residual = 0.0008464687, Final residual = 5.396645e-19, No Iterations 1
Radiation solver iter: 6
DILUPBiCGStab:  Solving for ILambda_8_0, Initial residual = 0.001455349, Final residual = 1.39847e-18, No Iterations 1
Radiation solver iter: 7
DILUPBiCGStab:  Solving for ILambda_8_0, Initial residual = 0.001297051, Final residual = 1.218019e-18, No Iterations 1
Radiation solver iter: 8
DILUPBiCGStab:  Solving for ILambda_8_0, Initial residual = 0.001147802, Final residual = 1.034847e-18, No Iterations 1
Radiation solver iter: 9
DILUPBiCGStab:  Solving for ILambda_8_0, Initial residual = 0.001014822, Final residual = 7.929494e-19, No Iterations 1
Radiation solver iter: 10
DILUPBiCGStab:  Solving for ILambda_8_0, Initial residual = 0.0008863961, Final residual = 7.738505e-19, No Iterations 1
GAMG:  Solving for p_rgh, Initial residual = 0.02124394, Final residual = 9.756826e-05, No Iterations 2
time step continuity errors : sum local = 0.0006587885, global = -1.490726e-17, cumulative = 1.668871e-15
rho min/max : 0.5444118 0.8674594
DILUPBiCGStab:  Solving for omega, Initial residual = 0.001507131, Final residual = 7.04058e-05, No Iterations 1
DILUPBiCGStab:  Solving for k, Initial residual = 0.004145429, Final residual = 0.0001692122, No Iterations 1
ExecutionTime = 34.21 s  ClockTime = 34 s

surfaceFieldValue wallT write:
    areaAverage(plate) of T = 645

surfaceFieldValue wallTriser write:
    areaAverage(riser) of T = 405

End

