/*---------------------------------------------------------------------------*\
| =========                 |                                                 |
| \\      /  F ield         | OpenFOAM: The Open Source CFD Toolbox           |
|  \\    /   O peration     | Version:  2312                                  |
|   \\  /    A nd           | Website:  www.openfoam.com                      |
|    \\/     M anipulation  |                                                 |
\*---------------------------------------------------------------------------*/
Build  : _c39a0f64-20231220 OPENFOAM=2312 version=2312
Arch   : "LSB;label=32;scalar=64"
Exec   : buoyantSimpleFoam
Date   : Jul 02 2026
Time   : 08:51:43
Host   : eb085622bb4f
PID    : 231
I/O    : uncollated
Case   : /case
nProcs : 1
trapFpe: Floating point exception trapping enabled (FOAM_SIGFPE).
fileModificationChecking : Monitoring run-time modified files using timeStampMaster (fileModificationSkew 5, maxFileModificationPolls 20)
allowSystemOperations : Allowing user-supplied system call operations

// * * * * * * * * * * * * * * * * * * * * * * * * * * * * * * * * * * * * * //
Create time

Create mesh for time = 3900


SIMPLE: convergence criteria
    field p_rgh	 tolerance 1e-05
    field U	 tolerance 1e-05
    field h	 tolerance 1e-05
    field "(k|omega)"	 tolerance 0.001

Reading thermophysical properties

Selecting thermodynamics package 
{
    type            heRhoThermo;
    mixture         pureMixture;
    transport       const;
    thermo          hConst;
    equationOfState perfectGas;
    specie          specie;
    energy          sensibleEnthalpy;
}

Reading field U

Reading/calculating face flux field phi

Creating turbulence model

Selecting turbulence model type RAS
Selecting RAS turbulence model kOmegaSST
Selecting patchDistMethod meshWave
RAS
{
    RASModel        kOmegaSST;
    turbulence      on;
    printCoeffs     on;
    alphaK1         0.85;
    alphaK2         1;
    alphaOmega1     0.5;
    alphaOmega2     0.856;
    gamma1          0.5555556;
    gamma2          0.44;
    beta1           0.075;
    beta2           0.0828;
    betaStar        0.09;
    a1              0.31;
    b1              1;
    c1              10;
    F3              false;
    decayControl    false;
    kInf            0;
    omegaInf        0;
}


Reading g

Reading hRef
Calculating field g.h

Reading field p_rgh

No MRF models present

Selecting radiationModel fvDOM
Selecting absorptionEmissionModel constantAbsorptionEmission
Selecting scatterModel none
Selecting sootModel none
fvDOM : Allocated 16 rays with average orientation:
	I0 : dAve : 	(0.1195698 0.6011177 2.944771e-33) : omega : 	0.7853982 : d : 	(0.1950903 0.9807853 6.123234e-17)
	I1 : dAve : 	(0.3405058 0.509603 2.944771e-33) : omega : 	0.7853982 : d : 	(0.5555702 0.8314696 6.123234e-17)
	I2 : dAve : 	(0.509603 0.3405058 2.944771e-33) : omega : 	0.7853982 : d : 	(0.8314696 0.5555702 6.123234e-17)
	I3 : dAve : 	(0.6011177 0.1195698 2.944771e-33) : omega : 	0.7853982 : d : 	(0.9807853 0.1950903 6.123234e-17)
	I4 : dAve : 	(0.6011177 -0.1195698 2.944771e-33) : omega : 	0.7853982 : d : 	(0.9807853 -0.1950903 6.123234e-17)
	I5 : dAve : 	(0.509603 -0.3405058 2.944771e-33) : omega : 	0.7853982 : d : 	(0.8314696 -0.5555702 6.123234e-17)
	I6 : dAve : 	(0.3405058 -0.509603 2.944771e-33) : omega : 	0.7853982 : d : 	(0.5555702 -0.8314696 6.123234e-17)
	I7 : dAve : 	(0.1195698 -0.6011177 2.944771e-33) : omega : 	0.7853982 : d : 	(0.1950903 -0.9807853 6.123234e-17)
	I8 : dAve : 	(-0.1195698 -0.6011177 2.944771e-33) : omega : 	0.7853982 : d : 	(-0.1950903 -0.9807853 6.123234e-17)
	I9 : dAve : 	(-0.3405058 -0.509603 2.944771e-33) : omega : 	0.7853982 : d : 	(-0.5555702 -0.8314696 6.123234e-17)
	I10 : dAve : 	(-0.509603 -0.3405058 2.944771e-33) : omega : 	0.7853982 : d : 	(-0.8314696 -0.5555702 6.123234e-17)
	I11 : dAve : 	(-0.6011177 -0.1195698 2.944771e-33) : omega : 	0.7853982 : d : 	(-0.9807853 -0.1950903 6.123234e-17)
	I12 : dAve : 	(-0.6011177 0.1195698 2.944771e-33) : omega : 	0.7853982 : d : 	(-0.9807853 0.1950903 6.123234e-17)
	I13 : dAve : 	(-0.509603 0.3405058 2.944771e-33) : omega : 	0.7853982 : d : 	(-0.8314696 0.5555702 6.123234e-17)
	I14 : dAve : 	(-0.3405058 0.509603 2.944771e-33) : omega : 	0.7853982 : d : 	(-0.5555702 0.8314696 6.123234e-17)
	I15 : dAve : 	(-0.1195698 0.6011177 2.944771e-33) : omega : 	0.7853982 : d : 	(-0.1950903 0.9807853 6.123234e-17)
Total omega : 12.56637

Creating finite volume options from "system/fvOptions"

Selecting finite volume options type limitTemperature
    Source: limitT
    - selecting all cells
    - selected 12000 cell(s) with volume 0.473422
Selecting finite volume options type limitVelocity
    Source: limitU
    - selecting all cells
    - selected 12000 cell(s) with volume 0.473422

Starting time loop

surfaceFieldValue wallT:
    operation     = areaAverage


surfaceFieldValue wallTriser:
    operation     = areaAverage


Time = 3901

DILUPBiCGStab:  Solving for h, Initial residual = 9.275454e-05, Final residual = 3.863569e-09, No Iterations 1
limitTemperature limitT Lower limited 0 (0%) of cells, with min limit 280
limitTemperature limitT Upper limited 0 (0%) of cells, with max limit 1200
limitTemperature limitT Unlimited Tmin 416.0197
limitTemperature limitT Unlimited Tmax 501.0062
Radiation solver iter: 0
Selecting boundary radiation Model: lookup
Selecting boundary radiation Model: lookup
Selecting boundary radiation Model: lookup
DILUPBiCGStab:  Solving for ILambda_0_0, Initial residual = 0.1495043, Final residual = 1.469775e-15, No Iterations 1
DILUPBiCGStab:  Solving for ILambda_1_0, Initial residual = 0.2869759, Final residual = 2.086432e-15, No Iterations 1
DILUPBiCGStab:  Solving for ILambda_2_0, Initial residual = 0.4143237, Final residual = 2.526033e-15, No Iterations 1
DILUPBiCGStab:  Solving for ILambda_3_0, Initial residual = 0.5587358, Final residual = 3.229962e-15, No Iterations 1
DILUPBiCGStab:  Solving for ILambda_4_0, Initial residual = 0.5637821, Final residual = 0.002179674, No Iterations 6
DILUPBiCGStab:  Solving for ILambda_5_0, Initial residual = 0.4212538, Final residual = 0.02888369, No Iterations 11
DILUPBiCGStab:  Solving for ILambda_6_0, Initial residual = 0.3115459, Final residual = 0.02534401, No Iterations 18
DILUPBiCGStab:  Solving for ILambda_7_0, Initial residual = 0.1958093, Final residual = 0.00772054, No Iterations 28
DILUPBiCGStab:  Solving for ILambda_8_0, Initial residual = 0.2264066, Final residual = 2.006442e-15, No Iterations 1
DILUPBiCGStab:  Solving for ILambda_9_0, Initial residual = 0.3862232, Final residual = 2.558881e-15, No Iterations 1
DILUPBiCGStab:  Solving for ILambda_10_0, Initial residual = 0.5212167, Final residual = 2.571331e-15, No Iterations 1
DILUPBiCGStab:  Solving for ILambda_11_0, Initial residual = 0.6521829, Final residual = 2.816173e-15, No Iterations 1
DILUPBiCGStab:  Solving for ILambda_12_0, Initial residual = 0.7016994, Final residual = 0.0007737344, No Iterations 6
DILUPBiCGStab:  Solving for ILambda_13_0, Initial residual = 0.6356216, Final residual = 0.0001147065, No Iterations 13
DILUPBiCGStab:  Solving for ILambda_14_0, Initial residual = 0.5498599, Final residual = 0.05450351, No Iterations 19
DILUPBiCGStab:  Solving for ILambda_15_0, Initial residual = 0.4236141, Final residual = 0.002800938, No Iterations 28
Radiation solver iter: 1
DILUPBiCGStab:  Solving for ILambda_0_0, Initial residual = 0.02879915, Final residual = 1.009252e-16, No Iterations 1
DILUPBiCGStab:  Solving for ILambda_1_0, Initial residual = 0.04011085, Final residual = 1.14323e-16, No Iterations 1
DILUPBiCGStab:  Solving for ILambda_2_0, Initial residual = 0.05488159, Final residual = 1.574132e-16, No Iterations 1
DILUPBiCGStab:  Solving for ILambda_3_0, Initial residual = 0.0703163, Final residual = 2.244314e-16, No Iterations 1
DILUPBiCGStab:  Solving for ILambda_4_0, Initial residual = 0.08076439, Final residual = 0.00790096, No Iterations 4
DILUPBiCGStab:  Solving for ILambda_5_0, Initial residual = 0.09823603, Final residual = 0.003014069, No Iterations 9
DILUPBiCGStab:  Solving for ILambda_6_0, Initial residual = 0.07372832, Final residual = 0.007337982, No Iterations 10
DILUPBiCGStab:  Solving for ILambda_7_0, Initial residual = 0.03855064, Final residual = 0.002595232, No Iterations 19
DILUPBiCGStab:  Solving for ILambda_8_0, Initial residual = 0.02802733, Final residual = 1.37394e-16, No Iterations 1
DILUPBiCGStab:  Solving for ILambda_9_0, Initial residual = 0.03259616, Final residual = 1.493404e-16, No Iterations 1
DILUPBiCGStab:  Solving for ILambda_10_0, Initial residual = 0.03854562, Final residual = 1.605209e-16, No Iterations 1
DILUPBiCGStab:  Solving for ILambda_11_0, Initial residual = 0.04565527, Final residual = 2.028039e-16, No Iterations 1
DILUPBiCGStab:  Solving for ILambda_12_0, Initial residual = 0.0498049, Final residual = 0.0006924934, No Iterations 5
DILUPBiCGStab:  Solving for ILambda_13_0, Initial residual = 0.04493043, Final residual = 0.002287636, No Iterations 9
DILUPBiCGStab:  Solving for ILambda_14_0, Initial residual = 0.1035382, Final residual = 0.009540775, No Iterations 11
DILUPBiCGStab:  Solving for ILambda_15_0, Initial residual = 0.04322076, Final residual = 0.002934491, No Iterations 24
Radiation solver iter: 2
DILUPBiCGStab:  Solving for ILambda_0_0, Initial residual = 0.01684252, Final residual = 2.927003e-17, No Iterations 1
DILUPBiCGStab:  Solving for ILambda_1_0, Initial residual = 0.02053547, Final residual = 2.14682e-17, No Iterations 1
DILUPBiCGStab:  Solving for ILambda_2_0, Initial residual = 0.02561637, Final residual = 2.261442e-17, No Iterations 1
DILUPBiCGStab:  Solving for ILambda_3_0, Initial residual = 0.0227367, Final residual = 2.222122e-17, No Iterations 1
DILUPBiCGStab:  Solving for ILambda_4_0, Initial residual = 0.03386973, Final residual = 0.001865961, No Iterations 3
DILUPBiCGStab:  Solving for ILambda_5_0, Initial residual = 0.04045959, Final residual = 0.003144523, No Iterations 5
DILUPBiCGStab:  Solving for ILambda_6_0, Initial residual = 0.03609466, Final residual = 0.002292113, No Iterations 6
DILUPBiCGStab:  Solving for ILambda_7_0, Initial residual = 0.02339788, Final residual = 0.001823338, No Iterations 9
DILUPBiCGStab:  Solving for ILambda_8_0, Initial residual = 0.01136149, Final residual = 1.742904e-17, No Iterations 1
DILUPBiCGStab:  Solving for ILambda_9_0, Initial residual = 0.01309871, Final residual = 2.025772e-17, No Iterations 1
DILUPBiCGStab:  Solving for ILambda_10_0, Initial residual = 0.01413304, Final residual = 2.578721e-17, No Iterations 1
DILUPBiCGStab:  Solving for ILambda_11_0, Initial residual = 0.01338591, Final residual = 3.894659e-17, No Iterations 1
DILUPBiCGStab:  Solving for ILambda_12_0, Initial residual = 0.01346119, Final residual = 0.0008933468, No Iterations 4
DILUPBiCGStab:  Solving for ILambda_13_0, Initial residual = 0.01749767, Final residual = 0.001598744, No Iterations 7
DILUPBiCGStab:  Solving for ILambda_14_0, Initial residual = 0.02648034, Final residual = 0.002220148, No Iterations 10
DILUPBiCGStab:  Solving for ILambda_15_0, Initial residual = 0.02189212, Final residual = 0.00185581, No Iterations 14
Radiation solver iter: 3
DILUPBiCGStab:  Solving for ILambda_0_0, Initial residual = 0.01338564, Final residual = 2.094437e-17, No Iterations 1
DILUPBiCGStab:  Solving for ILambda_1_0, Initial residual = 0.01477687, Final residual = 1.207799e-17, No Iterations 1
DILUPBiCGStab:  Solving for ILambda_2_0, Initial residual = 0.01567598, Final residual = 1.133861e-17, No Iterations 1
DILUPBiCGStab:  Solving for ILambda_3_0, Initial residual = 0.01048803, Final residual = 8.971494e-18, No Iterations 1
DILUPBiCGStab:  Solving for ILambda_4_0, Initial residual = 0.01434795, Final residual = 0.0007369277, No Iterations 2
DILUPBiCGStab:  Solving for ILambda_5_0, Initial residual = 0.02565661, Final residual = 0.000721045, No Iterations 5
DILUPBiCGStab:  Solving for ILambda_6_0, Initial residual = 0.02603951, Final residual = 0.00208774, No Iterations 4
DILUPBiCGStab:  Solving for ILambda_7_0, Initial residual = 0.0181318, Final residual = 0.001398003, No Iterations 6
DILUPBiCGStab:  Solving for ILambda_8_0, Initial residual = 0.008798559, Final residual = 1.128972e-17, No Iterations 1
DILUPBiCGStab:  Solving for ILambda_9_0, Initial residual = 0.0111484, Final residual = 1.430757e-17, No Iterations 1
DILUPBiCGStab:  Solving for ILambda_10_0, Initial residual = 0.01183956, Final residual = 1.935089e-17, No Iterations 1
DILUPBiCGStab:  Solving for ILambda_11_0, Initial residual = 0.009238569, Final residual = 2.407264e-17, No Iterations 1
DILUPBiCGStab:  Solving for ILambda_12_0, Initial residual = 0.009625385, Final residual = 0.000929526, No Iterations 4
DILUPBiCGStab:  Solving for ILambda_13_0, Initial residual = 0.01382161, Final residual = 0.00070664, No Iterations 8
DILUPBiCGStab:  Solving for ILambda_14_0, Initial residual = 0.01699453, Final residual = 0.001566216, No Iterations 8
DILUPBiCGStab:  Solving for ILambda_15_0, Initial residual = 0.01729864, Final residual = 0.00136403, No Iterations 11
Radiation solver iter: 4
DILUPBiCGStab:  Solving for ILambda_0_0, Initial residual = 0.01110092, Final residual = 1.498691e-17, No Iterations 1
DILUPBiCGStab:  Solving for ILambda_1_0, Initial residual = 0.01155772, Final residual = 9.088828e-18, No Iterations 1
DILUPBiCGStab:  Solving for ILambda_2_0, Initial residual = 0.01006813, Final residual = 6.522444e-18, No Iterations 1
DILUPBiCGStab:  Solving for ILambda_3_0, Initial residual = 0.004683308, Final residual = 3.727334e-18, No Iterations 1
DILUPBiCGStab:  Solving for ILambda_4_0, Initial residual = 0.00653666, Final residual = 0.0005446011, No Iterations 2
DILUPBiCGStab:  Solving for ILambda_5_0, Initial residual = 0.01742875, Final residual = 0.001477978, No Iterations 3
DILUPBiCGStab:  Solving for ILambda_6_0, Initial residual = 0.02029059, Final residual = 0.001624267, No Iterations 3
DILUPBiCGStab:  Solving for ILambda_7_0, Initial residual = 0.01503025, Final residual = 0.001369368, No Iterations 5
DILUPBiCGStab:  Solving for ILambda_8_0, Initial residual = 0.007501814, Final residual = 9.926922e-18, No Iterations 1
DILUPBiCGStab:  Solving for ILambda_9_0, Initial residual = 0.009791794, Final residual = 1.149937e-17, No Iterations 1
DILUPBiCGStab:  Solving for ILambda_10_0, Initial residual = 0.009676207, Final residual = 1.436973e-17, No Iterations 1
DILUPBiCGStab:  Solving for ILambda_11_0, Initial residual = 0.006174796, Final residual = 1.558296e-17, No Iterations 1
DILUPBiCGStab:  Solving for ILambda_12_0, Initial residual = 0.006383737, Final residual = 0.0002642017, No Iterations 4
DILUPBiCGStab:  Solving for ILambda_13_0, Initial residual = 0.01066234, Final residual = 0.0008108079, No Iterations 6
DILUPBiCGStab:  Solving for ILambda_14_0, Initial residual = 0.01407073, Final residual = 0.0004635607, No Iterations 11
DILUPBiCGStab:  Solving for ILambda_15_0, Initial residual = 0.014699, Final residual = 0.001376974, No Iterations 8
Radiation solver iter: 5
DILUPBiCGStab:  Solving for ILambda_0_0, Initial residual = 0.009359963, Final residual = 1.185264e-17, No Iterations 1
DILUPBiCGStab:  Solving for ILambda_1_0, Initial residual = 0.009298884, Final residual = 6.936637e-18, No Iterations 1
DILUPBiCGStab:  Solving for ILambda_2_0, Initial residual = 0.006613905, Final residual = 4.237703e-18, No Iterations 1
DILUPBiCGStab:  Solving for ILambda_3_0, Initial residual = 0.002036125, Final residual = 1.290793e-18, No Iterations 1
DILUPBiCGStab:  Solving for ILambda_4_0, Initial residual = 0.002865867, Final residual = 0.0001948398, No Iterations 2
DILUPBiCGStab:  Solving for ILambda_5_0, Initial residual = 0.01204122, Final residual = 0.001201258, No Iterations 3
DILUPBiCGStab:  Solving for ILambda_6_0, Initial residual = 0.0159997, Final residual = 0.0006835751, No Iterations 4
DILUPBiCGStab:  Solving for ILambda_7_0, Initial residual = 0.01275279, Final residual = 0.0008109695, No Iterations 5
DILUPBiCGStab:  Solving for ILambda_8_0, Initial residual = 0.006483326, Final residual = 6.294846e-18, No Iterations 1
DILUPBiCGStab:  Solving for ILambda_9_0, Initial residual = 0.008511394, Final residual = 8.755607e-18, No Iterations 1
DILUPBiCGStab:  Solving for ILambda_10_0, Initial residual = 0.007501052, Final residual = 9.568077e-18, No Iterations 1
DILUPBiCGStab:  Solving for ILambda_11_0, Initial residual = 0.004157005, Final residual = 9.640063e-18, No Iterations 1
DILUPBiCGStab:  Solving for ILambda_12_0, Initial residual = 0.004158635, Final residual = 9.134669e-05, No Iterations 5
DILUPBiCGStab:  Solving for ILambda_13_0, Initial residual = 0.008062336, Final residual = 0.000161286, No Iterations 9
DILUPBiCGStab:  Solving for ILambda_14_0, Initial residual = 0.01118304, Final residual = 0.001118007, No Iterations 6
DILUPBiCGStab:  Solving for ILambda_15_0, Initial residual = 0.01251545, Final residual = 0.000527578, No Iterations 10
Radiation solver iter: 6
DILUPBiCGStab:  Solving for ILambda_0_0, Initial residual = 0.007889496, Final residual = 9.31532e-18, No Iterations 1
DILUPBiCGStab:  Solving for ILambda_1_0, Initial residual = 0.007440562, Final residual = 5.288148e-18, No Iterations 1
DILUPBiCGStab:  Solving for ILambda_2_0, Initial residual = 0.004460204, Final residual = 2.223299e-18, No Iterations 1
DILUPBiCGStab:  Solving for ILambda_3_0, Initial residual = 0.0008360627, Final residual = 5.43683e-19, No Iterations 1
DILUPBiCGStab:  Solving for ILambda_4_0, Initial residual = 0.001115785, Final residual = 7.76829e-05, No Iterations 2
DILUPBiCGStab:  Solving for ILambda_5_0, Initial residual = 0.008101242, Final residual = 0.0002071553, No Iterations 4
DILUPBiCGStab:  Solving for ILambda_6_0, Initial residual = 0.01253888, Final residual = 0.0009518152, No Iterations 3
DILUPBiCGStab:  Solving for ILambda_7_0, Initial residual = 0.01068457, Final residual = 0.0005166931, No Iterations 5
DILUPBiCGStab:  Solving for ILambda_8_0, Initial residual = 0.005603185, Final residual = 4.768131e-18, No Iterations 1
DILUPBiCGStab:  Solving for ILambda_9_0, Initial residual = 0.007427366, Final residual = 6.82377e-18, No Iterations 1
DILUPBiCGStab:  Solving for ILambda_10_0, Initial residual = 0.005850811, Final residual = 6.743118e-18, No Iterations 1
DILUPBiCGStab:  Solving for ILambda_11_0, Initial residual = 0.003103666, Final residual = 7.135315e-18, No Iterations 1
DILUPBiCGStab:  Solving for ILambda_12_0, Initial residual = 0.003152826, Final residual = 0.0002463962, No Iterations 4
DILUPBiCGStab:  Solving for ILambda_13_0, Initial residual = 0.005896448, Final residual = 0.0001873493, No Iterations 8
DILUPBiCGStab:  Solving for ILambda_14_0, Initial residual = 0.009355089, Final residual = 0.00082173, No Iterations 6
DILUPBiCGStab:  Solving for ILambda_15_0, Initial residual = 0.01050322, Final residual = 0.0006889324, No Iterations 7
Radiation solver iter: 7
DILUPBiCGStab:  Solving for ILambda_0_0, Initial residual = 0.006604216, Final residual = 6.977995e-18, No Iterations 1
DILUPBiCGStab:  Solving for ILambda_1_0, Initial residual = 0.005829684, Final residual = 4.341313e-18, No Iterations 1
DILUPBiCGStab:  Solving for ILambda_2_0, Initial residual = 0.002998709, Final residual = 1.651731e-18, No Iterations 1
DILUPBiCGStab:  Solving for ILambda_4_0, Initial residual = 0.0004228558, Final residual = 7.672393e-05, No Iterations 1
DILUPBiCGStab:  Solving for ILambda_5_0, Initial residual = 0.005200181, Final residual = 0.0004307963, No Iterations 3
DILUPBiCGStab:  Solving for ILambda_6_0, Initial residual = 0.009752017, Final residual = 0.0009459021, No Iterations 3
DILUPBiCGStab:  Solving for ILambda_7_0, Initial residual = 0.009047558, Final residual = 0.0008979801, No Iterations 3
DILUPBiCGStab:  Solving for ILambda_8_0, Initial residual = 0.004812191, Final residual = 4.1958e-18, No Iterations 1
DILUPBiCGStab:  Solving for ILambda_9_0, Initial residual = 0.006406834, Final residual = 5.746003e-18, No Iterations 1
DILUPBiCGStab:  Solving for ILambda_10_0, Initial residual = 0.004520843, Final residual = 5.156981e-18, No Iterations 1
DILUPBiCGStab:  Solving for ILambda_11_0, Initial residual = 0.002376145, Final residual = 5.631749e-18, No Iterations 1
DILUPBiCGStab:  Solving for ILambda_12_0, Initial residual = 0.00254019, Final residual = 0.0001383543, No Iterations 4
DILUPBiCGStab:  Solving for ILambda_13_0, Initial residual = 0.004536862, Final residual = 0.0002618956, No Iterations 7
DILUPBiCGStab:  Solving for ILambda_14_0, Initial residual = 0.00764141, Final residual = 0.0005039794, No Iterations 7
DILUPBiCGStab:  Solving for ILambda_15_0, Initial residual = 0.008933929, Final residual = 0.0003559501, No Iterations 8
Radiation solver iter: 8
DILUPBiCGStab:  Solving for ILambda_0_0, Initial residual = 0.005538255, Final residual = 7.757189e-18, No Iterations 1
DILUPBiCGStab:  Solving for ILambda_1_0, Initial residual = 0.004443665, Final residual = 2.696427e-18, No Iterations 1
DILUPBiCGStab:  Solving for ILambda_2_0, Initial residual = 0.001987503, Final residual = 9.12836e-19, No Iterations 1
DILUPBiCGStab:  Solving for ILambda_5_0, Initial residual = 0.003263188, Final residual = 0.0002717133, No Iterations 2
DILUPBiCGStab:  Solving for ILambda_6_0, Initial residual = 0.007586641, Final residual = 0.0004500411, No Iterations 3
DILUPBiCGStab:  Solving for ILambda_7_0, Initial residual = 0.007743567, Final residual = 0.0006479989, No Iterations 3
DILUPBiCGStab:  Solving for ILambda_8_0, Initial residual = 0.004116095, Final residual = 2.933438e-18, No Iterations 1
DILUPBiCGStab:  Solving for ILambda_9_0, Initial residual = 0.005496646, Final residual = 5.024802e-18, No Iterations 1
DILUPBiCGStab:  Solving for ILambda_10_0, Initial residual = 0.00359034, Final residual = 4.039291e-18, No Iterations 1
DILUPBiCGStab:  Solving for ILambda_11_0, Initial residual = 0.001868978, Final residual = 4.534504e-18, No Iterations 1
DILUPBiCGStab:  Solving for ILambda_12_0, Initial residual = 0.002000131, Final residual = 0.0001142825, No Iterations 4
DILUPBiCGStab:  Solving for ILambda_13_0, Initial residual = 0.00375329, Final residual = 0.0003008932, No Iterations 6
DILUPBiCGStab:  Solving for ILambda_14_0, Initial residual = 0.006128459, Final residual = 0.0005565988, No Iterations 7
DILUPBiCGStab:  Solving for ILambda_15_0, Initial residual = 0.007560443, Final residual = 0.0006968871, No Iterations 8
Radiation solver iter: 9
DILUPBiCGStab:  Solving for ILambda_0_0, Initial residual = 0.004635547, Final residual = 4.345783e-18, No Iterations 1
DILUPBiCGStab:  Solving for ILambda_1_0, Initial residual = 0.003335055, Final residual = 1.879457e-18, No Iterations 1
DILUPBiCGStab:  Solving for ILambda_2_0, Initial residual = 0.001287481, Final residual = 6.182162e-19, No Iterations 1
DILUPBiCGStab:  Solving for ILambda_5_0, Initial residual = 0.001987998, Final residual = 0.0001570606, No Iterations 2
DILUPBiCGStab:  Solving for ILambda_6_0, Initial residual = 0.005802748, Final residual = 0.0003381579, No Iterations 2
DILUPBiCGStab:  Solving for ILambda_7_0, Initial residual = 0.006581764, Final residual = 0.0003194013, No Iterations 4
DILUPBiCGStab:  Solving for ILambda_8_0, Initial residual = 0.003523869, Final residual = 2.565108e-18, No Iterations 1
DILUPBiCGStab:  Solving for ILambda_9_0, Initial residual = 0.004675731, Final residual = 3.450221e-18, No Iterations 1
DILUPBiCGStab:  Solving for ILambda_10_0, Initial residual = 0.002887774, Final residual = 3.233412e-18, No Iterations 1
DILUPBiCGStab:  Solving for ILambda_11_0, Initial residual = 0.001456142, Final residual = 3.419221e-18, No Iterations 1
DILUPBiCGStab:  Solving for ILambda_12_0, Initial residual = 0.001569306, Final residual = 9.686817e-05, No Iterations 4
DILUPBiCGStab:  Solving for ILambda_13_0, Initial residual = 0.003155193, Final residual = 0.0001081841, No Iterations 8
DILUPBiCGStab:  Solving for ILambda_14_0, Initial residual = 0.005058354, Final residual = 0.0002657471, No Iterations 6
DILUPBiCGStab:  Solving for ILambda_15_0, Initial residual = 0.006530295, Final residual = 0.0003890642, No Iterations 6
Radiation solver iter: 10
DILUPBiCGStab:  Solving for ILambda_0_0, Initial residual = 0.003861338, Final residual = 3.738036e-18, No Iterations 1
DILUPBiCGStab:  Solving for ILambda_1_0, Initial residual = 0.002478011, Final residual = 1.548577e-18, No Iterations 1
DILUPBiCGStab:  Solving for ILambda_2_0, Initial residual = 0.000817709, Final residual = 3.019463e-19, No Iterations 1
DILUPBiCGStab:  Solving for ILambda_5_0, Initial residual = 0.001169296, Final residual = 8.323395e-05, No Iterations 2
DILUPBiCGStab:  Solving for ILambda_6_0, Initial residual = 0.004421722, Final residual = 0.0002419032, No Iterations 2
DILUPBiCGStab:  Solving for ILambda_7_0, Initial residual = 0.005533994, Final residual = 0.0004050472, No Iterations 3
DILUPBiCGStab:  Solving for ILambda_8_0, Initial residual = 0.003013106, Final residual = 2.092929e-18, No Iterations 1
DILUPBiCGStab:  Solving for ILambda_9_0, Initial residual = 0.003946733, Final residual = 2.893702e-18, No Iterations 1
DILUPBiCGStab:  Solving for ILambda_10_0, Initial residual = 0.002304143, Final residual = 2.536221e-18, No Iterations 1
DILUPBiCGStab:  Solving for ILambda_11_0, Initial residual = 0.001132051, Final residual = 2.594963e-18, No Iterations 1
DILUPBiCGStab:  Solving for ILambda_12_0, Initial residual = 0.001230422, Final residual = 5.985139e-05, No Iterations 4
DILUPBiCGStab:  Solving for ILambda_13_0, Initial residual = 0.002565943, Final residual = 0.0001619355, No Iterations 7
DILUPBiCGStab:  Solving for ILambda_14_0, Initial residual = 0.004152284, Final residual = 0.0002253922, No Iterations 6
DILUPBiCGStab:  Solving for ILambda_15_0, Initial residual = 0.00557396, Final residual = 0.0002901912, No Iterations 5
Radiation solver iter: 11
DILUPBiCGStab:  Solving for ILambda_0_0, Initial residual = 0.003199675, Final residual = 3.672243e-18, No Iterations 1
DILUPBiCGStab:  Solving for ILambda_1_0, Initial residual = 0.001827962, Final residual = 7.707039e-19, No Iterations 1
DILUPBiCGStab:  Solving for ILambda_5_0, Initial residual = 0.000669759, Final residual = 8.93476e-05, No Iterations 2
DILUPBiCGStab:  Solving for ILambda_6_0, Initial residual = 0.003314391, Final residual = 0.0003228231, No Iterations 2
DILUPBiCGStab:  Solving for ILambda_7_0, Initial residual = 0.004701029, Final residual = 0.0004256265, No Iterations 3
DILUPBiCGStab:  Solving for ILambda_8_0, Initial residual = 0.002581156, Final residual = 1.697033e-18, No Iterations 1
DILUPBiCGStab:  Solving for ILambda_9_0, Initial residual = 0.003286301, Final residual = 2.323574e-18, No Iterations 1
DILUPBiCGStab:  Solving for ILambda_10_0, Initial residual = 0.001790248, Final residual = 1.979615e-18, No Iterations 1
DILUPBiCGStab:  Solving for ILambda_11_0, Initial residual = 0.0008457152, Final residual = 2.033697e-18, No Iterations 1
DILUPBiCGStab:  Solving for ILambda_12_0, Initial residual = 0.0009195891, Final residual = 4.299381e-05, No Iterations 4
DILUPBiCGStab:  Solving for ILambda_13_0, Initial residual = 0.002060168, Final residual = 0.0001160744, No Iterations 7
DILUPBiCGStab:  Solving for ILambda_14_0, Initial residual = 0.003424839, Final residual = 0.00030565, No Iterations 4
DILUPBiCGStab:  Solving for ILambda_15_0, Initial residual = 0.004780817, Final residual = 0.0003610318, No Iterations 4
Radiation solver iter: 12
DILUPBiCGStab:  Solving for ILambda_0_0, Initial residual = 0.002645181, Final residual = 2.018339e-18, No Iterations 1
DILUPBiCGStab:  Solving for ILambda_1_0, Initial residual = 0.001349741, Final residual = 7.336444e-19, No Iterations 1
DILUPBiCGStab:  Solving for ILambda_6_0, Initial residual = 0.002496297, Final residual = 0.0002364664, No Iterations 2
DILUPBiCGStab:  Solving for ILambda_7_0, Initial residual = 0.00399089, Final residual = 0.0003005243, No Iterations 3
DILUPBiCGStab:  Solving for ILambda_8_0, Initial residual = 0.002211657, Final residual = 1.442425e-18, No Iterations 1
DILUPBiCGStab:  Solving for ILambda_9_0, Initial residual = 0.002727805, Final residual = 1.851303e-18, No Iterations 1
DILUPBiCGStab:  Solving for ILambda_10_0, Initial residual = 0.001377249, Final residual = 1.529534e-18, No Iterations 1
DILUPBiCGStab:  Solving for ILambda_13_0, Initial residual = 0.001614292, Final residual = 0.0001489679, No Iterations 6
DILUPBiCGStab:  Solving for ILambda_14_0, Initial residual = 0.00286137, Final residual = 0.0002230001, No Iterations 5
DILUPBiCGStab:  Solving for ILambda_15_0, Initial residual = 0.004105658, Final residual = 0.0002217942, No Iterations 5
Radiation solver iter: 13
DILUPBiCGStab:  Solving for ILambda_0_0, Initial residual = 0.002174312, Final residual = 1.673117e-18, No Iterations 1
DILUPBiCGStab:  Solving for ILambda_1_0, Initial residual = 0.0009974805, Final residual = 3.821182e-19, No Iterations 1
DILUPBiCGStab:  Solving for ILambda_6_0, Initial residual = 0.001857648, Final residual = 0.0001645328, No Iterations 2
DILUPBiCGStab:  Solving for ILambda_7_0, Initial residual = 0.003370289, Final residual = 0.0002785929, No Iterations 3
DILUPBiCGStab:  Solving for ILambda_8_0, Initial residual = 0.001907026, Final residual = 1.268283e-18, No Iterations 1
DILUPBiCGStab:  Solving for ILambda_9_0, Initial residual = 0.002266927, Final residual = 1.77727e-18, No Iterations 1
DILUPBiCGStab:  Solving for ILambda_10_0, Initial residual = 0.001061644, Final residual = 1.229297e-18, No Iterations 1
DILUPBiCGStab:  Solving for ILambda_13_0, Initial residual = 0.001256543, Final residual = 0.0001232062, No Iterations 7
DILUPBiCGStab:  Solving for ILambda_14_0, Initial residual = 0.002375623, Final residual = 0.0002087293, No Iterations 5
DILUPBiCGStab:  Solving for ILambda_15_0, Initial residual = 0.003475136, Final residual = 0.0002269168, No Iterations 4
Radiation solver iter: 14
DILUPBiCGStab:  Solving for ILambda_0_0, Initial residual = 0.00177686, Final residual = 1.421543e-18, No Iterations 1
DILUPBiCGStab:  Solving for ILambda_6_0, Initial residual = 0.001366569, Final residual = 0.0001106199, No Iterations 2
DILUPBiCGStab:  Solving for ILambda_7_0, Initial residual = 0.002831009, Final residual = 0.0001337309, No Iterations 4
DILUPBiCGStab:  Solving for ILambda_8_0, Initial residual = 0.001633977, Final residual = 1.102523e-18, No Iterations 1
DILUPBiCGStab:  Solving for ILambda_9_0, Initial residual = 0.00186202, Final residual = 1.240431e-18, No Iterations 1
DILUPBiCGStab:  Solving for ILambda_10_0, Initial residual = 0.0008047838, Final residual = 8.988432e-19, No Iterations 1
DILUPBiCGStab:  Solving for ILambda_13_0, Initial residual = 0.0009734453, Final residual = 8.024875e-05, No Iterations 6
DILUPBiCGStab:  Solving for ILambda_14_0, Initial residual = 0.001965466, Final residual = 0.0001805678, No Iterations 4
DILUPBiCGStab:  Solving for ILambda_15_0, Initial residual = 0.002933115, Final residual = 0.000230884, No Iterations 3
GAMG:  Solving for p_rgh, Initial residual = 0.03887106, Final residual = 6.724396e-05, No Iterations 2
limitVelocity limitU Limited 0 (0%) of cells, with max limit 5
time step continuity errors : sum local = 0.0003741491, global = 1.823881e-17, cumulative = 1.319635e-15
rho min/max : 0.5239286 0.9538496
DILUPBiCGStab:  Solving for omega, Initial residual = 0.0002393564, Final residual = 8.29237e-06, No Iterations 1
DILUPBiCGStab:  Solving for k, Initial residual = 0.0004513153, Final residual = 2.502508e-05, No Iterations 1
ExecutionTime = 0.61 s  ClockTime = 0 s

Time = 3902

DILUPBiCGStab:  Solving for h, Initial residual = 9.260376e-05, Final residual = 2.858572e-09, No Iterations 1
limitTemperature limitT Lower limited 0 (0%) of cells, with min limit 280
limitTemperature limitT Upper limited 0 (0%) of cells, with max limit 1200
limitTemperature limitT Unlimited Tmin 416.0208
limitTemperature limitT Unlimited Tmax 501.1429
GAMG:  Solving for p_rgh, Initial residual = 0.03081744, Final residual = 5.503237e-05, No Iterations 2
limitVelocity limitU Limited 0 (0%) of cells, with max limit 5
time step continuity errors : sum local = 0.00032952, global = -5.006101e-18, cumulative = 1.314629e-15
rho min/max : 0.5644912 0.9517572
DILUPBiCGStab:  Solving for omega, Initial residual = 0.0002286602, Final residual = 8.908843e-06, No Iterations 1
DILUPBiCGStab:  Solving for k, Initial residual = 0.0004350667, Final residual = 2.59392e-05, No Iterations 1
ExecutionTime = 0.62 s  ClockTime = 0 s

Time = 3903

DILUPBiCGStab:  Solving for h, Initial residual = 8.408372e-05, Final residual = 1.890135e-09, No Iterations 1
limitTemperature limitT Lower limited 0 (0%) of cells, with min limit 280
limitTemperature limitT Upper limited 0 (0%) of cells, with max limit 1200
limitTemperature limitT Unlimited Tmin 416.0247
limitTemperature limitT Unlimited Tmax 501.2112
Radiation solver iter: 0
DILUPBiCGStab:  Solving for ILambda_0_0, Initial residual = 0.1770692, Final residual = 1.75375e-15, No Iterations 1
DILUPBiCGStab:  Solving for ILambda_1_0, Initial residual = 0.3443237, Final residual = 2.425586e-15, No Iterations 1
DILUPBiCGStab:  Solving for ILambda_2_0, Initial residual = 0.4901288, Final residual = 2.808692e-15, No Iterations 1
DILUPBiCGStab:  Solving for ILambda_3_0, Initial residual = 0.6432778, Final residual = 3.74292e-15, No Iterations 1
DILUPBiCGStab:  Solving for ILambda_4_0, Initial residual = 0.6555536, Final residual = 0.02589632, No Iterations 4
DILUPBiCGStab:  Solving for ILambda_5_0, Initial residual = 0.5154523, Final residual = 0.01331354, No Iterations 10
DILUPBiCGStab:  Solving for ILambda_6_0, Initial residual = 0.3792212, Final residual = 0.03633187, No Iterations 17
DILUPBiCGStab:  Solving for ILambda_7_0, Initial residual = 0.2201239, Final residual = 0.008657916, No Iterations 32
DILUPBiCGStab:  Solving for ILambda_8_0, Initial residual = 0.2304309, Final residual = 1.960413e-15, No Iterations 1
DILUPBiCGStab:  Solving for ILambda_9_0, Initial residual = 0.3730399, Final residual = 2.392158e-15, No Iterations 1
DILUPBiCGStab:  Solving for ILambda_10_0, Initial residual = 0.4903368, Final residual = 2.532137e-15, No Iterations 1
DILUPBiCGStab:  Solving for ILambda_11_0, Initial residual = 0.6184895, Final residual = 2.836105e-15, No Iterations 1
DILUPBiCGStab:  Solving for ILambda_12_0, Initial residual = 0.6666967, Final residual = 0.05475824, No Iterations 4
DILUPBiCGStab:  Solving for ILambda_13_0, Initial residual = 0.5867089, Final residual = 0.0003065258, No Iterations 12
DILUPBiCGStab:  Solving for ILambda_14_0, Initial residual = 0.499447, Final residual = 0.03877613, No Iterations 17
DILUPBiCGStab:  Solving for ILambda_15_0, Initial residual = 0.4086542, Final residual = 0.02093165, No Iterations 25
Radiation solver iter: 1
DILUPBiCGStab:  Solving for ILambda_0_0, Initial residual = 0.06064664, Final residual = 1.601919e-16, No Iterations 1
DILUPBiCGStab:  Solving for ILambda_1_0, Initial residual = 0.1027346, Final residual = 2.458886e-16, No Iterations 1
DILUPBiCGStab:  Solving for ILambda_2_0, Initial residual = 0.1342871, Final residual = 3.039937e-16, No Iterations 1
DILUPBiCGStab:  Solving for ILambda_3_0, Initial residual = 0.1481839, Final residual = 3.806737e-16, No Iterations 1
DILUPBiCGStab:  Solving for ILambda_4_0, Initial residual = 0.1913765, Final residual = 0.01405472, No Iterations 4
DILUPBiCGStab:  Solving for ILambda_5_0, Initial residual = 0.1533944, Final residual = 0.01132012, No Iterations 9
DILUPBiCGStab:  Solving for ILambda_6_0, Initial residual = 0.1425403, Final residual = 0.01175378, No Iterations 10
DILUPBiCGStab:  Solving for ILambda_7_0, Initial residual = 0.06956947, Final residual = 0.006314971, No Iterations 15
DILUPBiCGStab:  Solving for ILambda_8_0, Initial residual = 0.02074926, Final residual = 8.011131e-17, No Iterations 1
DILUPBiCGStab:  Solving for ILambda_9_0, Initial residual = 0.02528634, Final residual = 8.421559e-17, No Iterations 1
DILUPBiCGStab:  Solving for ILambda_10_0, Initial residual = 0.02985142, Final residual = 9.896728e-17, No Iterations 1
DILUPBiCGStab:  Solving for ILambda_11_0, Initial residual = 0.03398697, Final residual = 1.32155e-16, No Iterations 1
DILUPBiCGStab:  Solving for ILambda_12_0, Initial residual = 0.1386421, Final residual = 0.01220455, No Iterations 2
DILUPBiCGStab:  Solving for ILambda_13_0, Initial residual = 0.04386985, Final residual = 0.003750354, No Iterations 8
DILUPBiCGStab:  Solving for ILambda_14_0, Initial residual = 0.103822, Final residual = 0.01028134, No Iterations 9
DILUPBiCGStab:  Solving for ILambda_15_0, Initial residual = 0.07260472, Final residual = 0.006352592, No Iterations 21
Radiation solver iter: 2
DILUPBiCGStab:  Solving for ILambda_0_0, Initial residual = 0.04583172, Final residual = 7.411654e-17, No Iterations 1
DILUPBiCGStab:  Solving for ILambda_1_0, Initial residual = 0.06962153, Final residual = 8.496647e-17, No Iterations 1
DILUPBiCGStab:  Solving for ILambda_2_0, Initial residual = 0.08005847, Final residual = 7.506916e-17, No Iterations 1
DILUPBiCGStab:  Solving for ILambda_3_0, Initial residual = 0.06614824, Final residual = 6.825455e-17, No Iterations 1
DILUPBiCGStab:  Solving for ILambda_4_0, Initial residual = 0.07524963, Final residual = 0.003090031, No Iterations 3
DILUPBiCGStab:  Solving for ILambda_5_0, Initial residual = 0.0857035, Final residual = 0.00652012, No Iterations 4
DILUPBiCGStab:  Solving for ILambda_6_0, Initial residual = 0.07107956, Final residual = 0.006036838, No Iterations 6
DILUPBiCGStab:  Solving for ILambda_7_0, Initial residual = 0.04356837, Final residual = 0.003717618, No Iterations 7
DILUPBiCGStab:  Solving for ILambda_8_0, Initial residual = 0.01094355, Final residual = 1.978554e-17, No Iterations 1
DILUPBiCGStab:  Solving for ILambda_9_0, Initial residual = 0.01531832, Final residual = 3.054996e-17, No Iterations 1
DILUPBiCGStab:  Solving for ILambda_10_0, Initial residual = 0.01846444, Final residual = 4.471461e-17, No Iterations 1
DILUPBiCGStab:  Solving for ILambda_11_0, Initial residual = 0.01925732, Final residual = 6.026437e-17, No Iterations 1
DILUPBiCGStab:  Solving for ILambda_12_0, Initial residual = 0.03578781, Final residual = 0.003224803, No Iterations 4
DILUPBiCGStab:  Solving for ILambda_13_0, Initial residual = 0.02997136, Final residual = 0.001295492, No Iterations 10
DILUPBiCGStab:  Solving for ILambda_14_0, Initial residual = 0.03789558, Final residual = 0.003000211, No Iterations 11
DILUPBiCGStab:  Solving for ILambda_15_0, Initial residual = 0.03663083, Final residual = 0.003499963, No Iterations 14
Radiation solver iter: 3
DILUPBiCGStab:  Solving for ILambda_0_0, Initial residual = 0.04111542, Final residual = 6.208774e-17, No Iterations 1
DILUPBiCGStab:  Solving for ILambda_1_0, Initial residual = 0.05251353, Final residual = 5.14931e-17, No Iterations 1
DILUPBiCGStab:  Solving for ILambda_2_0, Initial residual = 0.05110911, Final residual = 3.847548e-17, No Iterations 1
DILUPBiCGStab:  Solving for ILambda_3_0, Initial residual = 0.03205265, Final residual = 2.675311e-17, No Iterations 1
DILUPBiCGStab:  Solving for ILambda_4_0, Initial residual = 0.03384908, Final residual = 0.001728909, No Iterations 2
DILUPBiCGStab:  Solving for ILambda_5_0, Initial residual = 0.05342125, Final residual = 0.003997609, No Iterations 4
DILUPBiCGStab:  Solving for ILambda_6_0, Initial residual = 0.05030402, Final residual = 0.002963871, No Iterations 5
DILUPBiCGStab:  Solving for ILambda_7_0, Initial residual = 0.03070526, Final residual = 0.003038735, No Iterations 6
DILUPBiCGStab:  Solving for ILambda_8_0, Initial residual = 0.009235528, Final residual = 1.101404e-17, No Iterations 1
DILUPBiCGStab:  Solving for ILambda_9_0, Initial residual = 0.01314607, Final residual = 2.03236e-17, No Iterations 1
DILUPBiCGStab:  Solving for ILambda_10_0, Initial residual = 0.01435739, Final residual = 2.591595e-17, No Iterations 1
DILUPBiCGStab:  Solving for ILambda_11_0, Initial residual = 0.01244168, Final residual = 3.196641e-17, No Iterations 1
DILUPBiCGStab:  Solving for ILambda_12_0, Initial residual = 0.01589256, Final residual = 0.0001197019, No Iterations 5
DILUPBiCGStab:  Solving for ILambda_13_0, Initial residual = 0.02232169, Final residual = 0.001862252, No Iterations 7
DILUPBiCGStab:  Solving for ILambda_14_0, Initial residual = 0.02679231, Final residual = 0.002502587, No Iterations 9
DILUPBiCGStab:  Solving for ILambda_15_0, Initial residual = 0.02918834, Final residual = 0.002399139, No Iterations 9
Radiation solver iter: 4
DILUPBiCGStab:  Solving for ILambda_0_0, Initial residual = 0.03762566, Final residual = 5.262458e-17, No Iterations 1
DILUPBiCGStab:  Solving for ILambda_1_0, Initial residual = 0.04070601, Final residual = 3.23954e-17, No Iterations 1
DILUPBiCGStab:  Solving for ILambda_2_0, Initial residual = 0.03380548, Final residual = 2.270137e-17, No Iterations 1
DILUPBiCGStab:  Solving for ILambda_3_0, Initial residual = 0.01426536, Final residual = 1.073543e-17, No Iterations 1
DILUPBiCGStab:  Solving for ILambda_4_0, Initial residual = 0.01509315, Final residual = 0.00121194, No Iterations 2
DILUPBiCGStab:  Solving for ILambda_5_0, Initial residual = 0.03667092, Final residual = 0.002419168, No Iterations 3
DILUPBiCGStab:  Solving for ILambda_6_0, Initial residual = 0.03733293, Final residual = 0.00252453, No Iterations 3
DILUPBiCGStab:  Solving for ILambda_7_0, Initial residual = 0.02433949, Final residual = 0.0021643, No Iterations 6
DILUPBiCGStab:  Solving for ILambda_8_0, Initial residual = 0.008150434, Final residual = 8.974785e-18, No Iterations 1
DILUPBiCGStab:  Solving for ILambda_9_0, Initial residual = 0.01160934, Final residual = 1.419141e-17, No Iterations 1
DILUPBiCGStab:  Solving for ILambda_10_0, Initial residual = 0.01153705, Final residual = 1.683167e-17, No Iterations 1
DILUPBiCGStab:  Solving for ILambda_11_0, Initial residual = 0.009018287, Final residual = 2.122317e-17, No Iterations 1
DILUPBiCGStab:  Solving for ILambda_12_0, Initial residual = 0.01085979, Final residual = 0.0008395194, No Iterations 3
DILUPBiCGStab:  Solving for ILambda_13_0, Initial residual = 0.01805188, Final residual = 0.001745389, No Iterations 7
DILUPBiCGStab:  Solving for ILambda_14_0, Initial residual = 0.02394661, Final residual = 0.000865518, No Iterations 11
DILUPBiCGStab:  Solving for ILambda_15_0, Initial residual = 0.02669319, Final residual = 0.002622003, No Iterations 7
Radiation solver iter: 5
DILUPBiCGStab:  Solving for ILambda_0_0, Initial residual = 0.03415499, Final residual = 4.955677e-17, No Iterations 1
DILUPBiCGStab:  Solving for ILambda_1_0, Initial residual = 0.03210469, Final residual = 2.573713e-17, No Iterations 1
DILUPBiCGStab:  Solving for ILambda_2_0, Initial residual = 0.02299794, Final residual = 1.484372e-17, No Iterations 1
DILUPBiCGStab:  Solving for ILambda_3_0, Initial residual = 0.006002381, Final residual = 3.596853e-18, No Iterations 1
DILUPBiCGStab:  Solving for ILambda_4_0, Initial residual = 0.006676795, Final residual = 0.0004404485, No Iterations 2
DILUPBiCGStab:  Solving for ILambda_5_0, Initial residual = 0.02471252, Final residual = 0.0006136, No Iterations 4
DILUPBiCGStab:  Solving for ILambda_6_0, Initial residual = 0.02830069, Final residual = 0.0028266, No Iterations 3
DILUPBiCGStab:  Solving for ILambda_7_0, Initial residual = 0.01947077, Final residual = 0.0002336035, No Iterations 8
DILUPBiCGStab:  Solving for ILambda_8_0, Initial residual = 0.007097541, Final residual = 6.399671e-18, No Iterations 1
DILUPBiCGStab:  Solving for ILambda_9_0, Initial residual = 0.01002123, Final residual = 1.139799e-17, No Iterations 1
DILUPBiCGStab:  Solving for ILambda_10_0, Initial residual = 0.009034937, Final residual = 1.192304e-17, No Iterations 1
DILUPBiCGStab:  Solving for ILambda_11_0, Initial residual = 0.006823153, Final residual = 1.57425e-17, No Iterations 1
DILUPBiCGStab:  Solving for ILambda_12_0, Initial residual = 0.008516141, Final residual = 0.0006186494, No Iterations 3
DILUPBiCGStab:  Solving for ILambda_13_0, Initial residual = 0.01426881, Final residual = 0.0003229033, No Iterations 8
DILUPBiCGStab:  Solving for ILambda_14_0, Initial residual = 0.02031849, Final residual = 0.001868701, No Iterations 10
DILUPBiCGStab:  Solving for ILambda_15_0, Initial residual = 0.02438473, Final residual = 0.002330575, No Iterations 7
Radiation solver iter: 6
DILUPBiCGStab:  Solving for ILambda_0_0, Initial residual = 0.03059145, Final residual = 3.623407e-17, No Iterations 1
DILUPBiCGStab:  Solving for ILambda_1_0, Initial residual = 0.02480389, Final residual = 1.570684e-17, No Iterations 1
DILUPBiCGStab:  Solving for ILambda_2_0, Initial residual = 0.01594646, Final residual = 9.491356e-18, No Iterations 1
DILUPBiCGStab:  Solving for ILambda_3_0, Initial residual = 0.002337273, Final residual = 1.54938e-18, No Iterations 1
DILUPBiCGStab:  Solving for ILambda_4_0, Initial residual = 0.002606671, Final residual = 0.0001568316, No Iterations 2
DILUPBiCGStab:  Solving for ILambda_5_0, Initial residual = 0.01666053, Final residual = 0.001072124, No Iterations 3
DILUPBiCGStab:  Solving for ILambda_6_0, Initial residual = 0.02149755, Final residual = 0.001186342, No Iterations 3
DILUPBiCGStab:  Solving for ILambda_7_0, Initial residual = 0.01551744, Final residual = 0.0006171138, No Iterations 5
DILUPBiCGStab:  Solving for ILambda_8_0, Initial residual = 0.006089072, Final residual = 5.766599e-18, No Iterations 1
DILUPBiCGStab:  Solving for ILambda_9_0, Initial residual = 0.008421835, Final residual = 9.054455e-18, No Iterations 1
DILUPBiCGStab:  Solving for ILambda_10_0, Initial residual = 0.007065341, Final residual = 9.94948e-18, No Iterations 1
DILUPBiCGStab:  Solving for ILambda_11_0, Initial residual = 0.005287281, Final residual = 1.309068e-17, No Iterations 1
DILUPBiCGStab:  Solving for ILambda_12_0, Initial residual = 0.00643054, Final residual = 0.0004286522, No Iterations 4
DILUPBiCGStab:  Solving for ILambda_13_0, Initial residual = 0.0107875, Final residual = 0.0008157165, No Iterations 7
DILUPBiCGStab:  Solving for ILambda_14_0, Initial residual = 0.01716787, Final residual = 0.001598252, No Iterations 7
DILUPBiCGStab:  Solving for ILambda_15_0, Initial residual = 0.02182305, Final residual = 0.0008454934, No Iterations 9
Radiation solver iter: 7
DILUPBiCGStab:  Solving for ILambda_0_0, Initial residual = 0.02705849, Final residual = 3.190434e-17, No Iterations 1
DILUPBiCGStab:  Solving for ILambda_1_0, Initial residual = 0.01876334, Final residual = 1.174665e-17, No Iterations 1
DILUPBiCGStab:  Solving for ILambda_2_0, Initial residual = 0.01089576, Final residual = 6.098996e-18, No Iterations 1
DILUPBiCGStab:  Solving for ILambda_3_0, Initial residual = 0.000824797, Final residual = 4.525958e-19, No Iterations 1
DILUPBiCGStab:  Solving for ILambda_4_0, Initial residual = 0.0009589928, Final residual = 6.359502e-05, No Iterations 2
DILUPBiCGStab:  Solving for ILambda_5_0, Initial residual = 0.01106777, Final residual = 0.001028055, No Iterations 2
DILUPBiCGStab:  Solving for ILambda_6_0, Initial residual = 0.01611617, Final residual = 0.0008581778, No Iterations 3
DILUPBiCGStab:  Solving for ILambda_7_0, Initial residual = 0.0127243, Final residual = 0.001071553, No Iterations 3
DILUPBiCGStab:  Solving for ILambda_8_0, Initial residual = 0.005205051, Final residual = 4.062881e-18, No Iterations 1
DILUPBiCGStab:  Solving for ILambda_9_0, Initial residual = 0.006959531, Final residual = 6.905776e-18, No Iterations 1
DILUPBiCGStab:  Solving for ILambda_10_0, Initial residual = 0.005536167, Final residual = 8.594979e-18, No Iterations 1
DILUPBiCGStab:  Solving for ILambda_11_0, Initial residual = 0.004049918, Final residual = 1.080202e-17, No Iterations 1
DILUPBiCGStab:  Solving for ILambda_12_0, Initial residual = 0.004575943, Final residual = 0.0003599084, No Iterations 4
DILUPBiCGStab:  Solving for ILambda_13_0, Initial residual = 0.008757766, Final residual = 0.0006302109, No Iterations 6
DILUPBiCGStab:  Solving for ILambda_14_0, Initial residual = 0.01445061, Final residual = 0.00134883, No Iterations 7
DILUPBiCGStab:  Solving for ILambda_15_0, Initial residual = 0.01899777, Final residual = 0.001758444, No Iterations 6
Radiation solver iter: 8
DILUPBiCGStab:  Solving for ILambda_0_0, Initial residual = 0.02362393, Final residual = 2.743032e-17, No Iterations 1
DILUPBiCGStab:  Solving for ILambda_1_0, Initial residual = 0.01403956, Final residual = 8.746041e-18, No Iterations 1
DILUPBiCGStab:  Solving for ILambda_2_0, Initial residual = 0.007240504, Final residual = 3.937859e-18, No Iterations 1
DILUPBiCGStab:  Solving for ILambda_5_0, Initial residual = 0.007152606, Final residual = 0.0005811903, No Iterations 2
DILUPBiCGStab:  Solving for ILambda_6_0, Initial residual = 0.01206159, Final residual = 0.0008386924, No Iterations 3
DILUPBiCGStab:  Solving for ILambda_7_0, Initial residual = 0.01051561, Final residual = 0.0009368482, No Iterations 3
DILUPBiCGStab:  Solving for ILambda_8_0, Initial residual = 0.004485253, Final residual = 3.772769e-18, No Iterations 1
DILUPBiCGStab:  Solving for ILambda_9_0, Initial residual = 0.005712148, Final residual = 6.218948e-18, No Iterations 1
DILUPBiCGStab:  Solving for ILambda_10_0, Initial residual = 0.004485106, Final residual = 6.505323e-18, No Iterations 1
DILUPBiCGStab:  Solving for ILambda_11_0, Initial residual = 0.003181989, Final residual = 8.60593e-18, No Iterations 1
DILUPBiCGStab:  Solving for ILambda_12_0, Initial residual = 0.003572804, Final residual = 0.000209201, No Iterations 4
DILUPBiCGStab:  Solving for ILambda_13_0, Initial residual = 0.007150126, Final residual = 0.0003119669, No Iterations 8
DILUPBiCGStab:  Solving for ILambda_14_0, Initial residual = 0.01209762, Final residual = 0.0004657668, No Iterations 10
DILUPBiCGStab:  Solving for ILambda_15_0, Initial residual = 0.01687245, Final residual = 0.001240549, No Iterations 6
Radiation solver iter: 9
DILUPBiCGStab:  Solving for ILambda_0_0, Initial residual = 0.02038054, Final residual = 1.991677e-17, No Iterations 1
DILUPBiCGStab:  Solving for ILambda_1_0, Initial residual = 0.01045685, Final residual = 6.769443e-18, No Iterations 1
DILUPBiCGStab:  Solving for ILambda_2_0, Initial residual = 0.004649166, Final residual = 2.382433e-18, No Iterations 1
DILUPBiCGStab:  Solving for ILambda_5_0, Initial residual = 0.004510183, Final residual = 0.0003227025, No Iterations 2
DILUPBiCGStab:  Solving for ILambda_6_0, Initial residual = 0.008934456, Final residual = 0.0008841239, No Iterations 2
DILUPBiCGStab:  Solving for ILambda_7_0, Initial residual = 0.008702108, Final residual = 0.0004386257, No Iterations 4
DILUPBiCGStab:  Solving for ILambda_8_0, Initial residual = 0.003878236, Final residual = 2.881872e-18, No Iterations 1
DILUPBiCGStab:  Solving for ILambda_9_0, Initial residual = 0.004667227, Final residual = 4.647077e-18, No Iterations 1
DILUPBiCGStab:  Solving for ILambda_10_0, Initial residual = 0.0036394, Final residual = 5.581368e-18, No Iterations 1
DILUPBiCGStab:  Solving for ILambda_11_0, Initial residual = 0.002444572, Final residual = 6.385235e-18, No Iterations 1
DILUPBiCGStab:  Solving for ILambda_12_0, Initial residual = 0.00282544, Final residual = 9.831338e-05, No Iterations 4
DILUPBiCGStab:  Solving for ILambda_13_0, Initial residual = 0.00573379, Final residual = 0.0004438706, No Iterations 7
DILUPBiCGStab:  Solving for ILambda_14_0, Initial residual = 0.009841343, Final residual = 0.000796225, No Iterations 6
DILUPBiCGStab:  Solving for ILambda_15_0, Initial residual = 0.01468782, Final residual = 0.0004791707, No Iterations 7
Radiation solver iter: 10
DILUPBiCGStab:  Solving for ILambda_0_0, Initial residual = 0.01739029, Final residual = 1.583914e-17, No Iterations 1
DILUPBiCGStab:  Solving for ILambda_1_0, Initial residual = 0.007845887, Final residual = 4.809465e-18, No Iterations 1
DILUPBiCGStab:  Solving for ILambda_2_0, Initial residual = 0.002867574, Final residual = 1.466629e-18, No Iterations 1
DILUPBiCGStab:  Solving for ILambda_5_0, Initial residual = 0.002734286, Final residual = 0.000172848, No Iterations 2
DILUPBiCGStab:  Solving for ILambda_6_0, Initial residual = 0.006695521, Final residual = 0.0006047734, No Iterations 2
DILUPBiCGStab:  Solving for ILambda_7_0, Initial residual = 0.00709535, Final residual = 0.0006790457, No Iterations 3
DILUPBiCGStab:  Solving for ILambda_8_0, Initial residual = 0.003359382, Final residual = 2.770054e-18, No Iterations 1
DILUPBiCGStab:  Solving for ILambda_9_0, Initial residual = 0.003815374, Final residual = 4.16283e-18, No Iterations 1
DILUPBiCGStab:  Solving for ILambda_10_0, Initial residual = 0.002946618, Final residual = 3.964594e-18, No Iterations 1
DILUPBiCGStab:  Solving for ILambda_11_0, Initial residual = 0.001894922, Final residual = 4.863199e-18, No Iterations 1
DILUPBiCGStab:  Solving for ILambda_12_0, Initial residual = 0.002304451, Final residual = 0.0001847988, No Iterations 3
DILUPBiCGStab:  Solving for ILambda_13_0, Initial residual = 0.004766095, Final residual = 0.0001424083, No Iterations 8
DILUPBiCGStab:  Solving for ILambda_14_0, Initial residual = 0.008383394, Final residual = 0.0008372896, No Iterations 7
DILUPBiCGStab:  Solving for ILambda_15_0, Initial residual = 0.01273451, Final residual = 0.0009832276, No Iterations 5
Radiation solver iter: 11
DILUPBiCGStab:  Solving for ILambda_0_0, Initial residual = 0.01469289, Final residual = 1.390484e-17, No Iterations 1
DILUPBiCGStab:  Solving for ILambda_1_0, Initial residual = 0.005912707, Final residual = 2.908792e-18, No Iterations 1
DILUPBiCGStab:  Solving for ILambda_2_0, Initial residual = 0.001689494, Final residual = 7.60344e-19, No Iterations 1
DILUPBiCGStab:  Solving for ILambda_5_0, Initial residual = 0.001586002, Final residual = 9.804897e-05, No Iterations 2
DILUPBiCGStab:  Solving for ILambda_6_0, Initial residual = 0.004994012, Final residual = 0.0003365289, No Iterations 2
DILUPBiCGStab:  Solving for ILambda_7_0, Initial residual = 0.005912303, Final residual = 0.0002755702, No Iterations 4
DILUPBiCGStab:  Solving for ILambda_8_0, Initial residual = 0.002900457, Final residual = 2.35852e-18, No Iterations 1
DILUPBiCGStab:  Solving for ILambda_9_0, Initial residual = 0.003116774, Final residual = 3.097366e-18, No Iterations 1
DILUPBiCGStab:  Solving for ILambda_10_0, Initial residual = 0.002368555, Final residual = 3.15199e-18, No Iterations 1
DILUPBiCGStab:  Solving for ILambda_11_0, Initial residual = 0.001505863, Final residual = 3.866819e-18, No Iterations 1
DILUPBiCGStab:  Solving for ILambda_12_0, Initial residual = 0.001905213, Final residual = 0.0001803408, No Iterations 3
DILUPBiCGStab:  Solving for ILambda_13_0, Initial residual = 0.003761898, Final residual = 0.0002885549, No Iterations 7
DILUPBiCGStab:  Solving for ILambda_14_0, Initial residual = 0.007080995, Final residual = 0.0003081005, No Iterations 9
DILUPBiCGStab:  Solving for ILambda_15_0, Initial residual = 0.01119138, Final residual = 0.0006593152, No Iterations 5
Radiation solver iter: 12
DILUPBiCGStab:  Solving for ILambda_0_0, Initial residual = 0.01231142, Final residual = 9.941164e-18, No Iterations 1
DILUPBiCGStab:  Solving for ILambda_1_0, Initial residual = 0.004455382, Final residual = 1.969713e-18, No Iterations 1
DILUPBiCGStab:  Solving for ILambda_2_0, Initial residual = 0.000947967, Final residual = 6.667582e-19, No Iterations 1
DILUPBiCGStab:  Solving for ILambda_5_0, Initial residual = 0.0008824275, Final residual = 6.123224e-05, No Iterations 2
DILUPBiCGStab:  Solving for ILambda_6_0, Initial residual = 0.003676723, Final residual = 0.0002401369, No Iterations 2
DILUPBiCGStab:  Solving for ILambda_7_0, Initial residual = 0.004806022, Final residual = 0.0004309569, No Iterations 2
DILUPBiCGStab:  Solving for ILambda_8_0, Initial residual = 0.002485186, Final residual = 1.952241e-18, No Iterations 1
DILUPBiCGStab:  Solving for ILambda_9_0, Initial residual = 0.002526176, Final residual = 2.32577e-18, No Iterations 1
DILUPBiCGStab:  Solving for ILambda_10_0, Initial residual = 0.001871056, Final residual = 2.469209e-18, No Iterations 1
DILUPBiCGStab:  Solving for ILambda_11_0, Initial residual = 0.001182233, Final residual = 3.01112e-18, No Iterations 1
DILUPBiCGStab:  Solving for ILambda_12_0, Initial residual = 0.001471996, Final residual = 5.983511e-05, No Iterations 4
DILUPBiCGStab:  Solving for ILambda_13_0, Initial residual = 0.00305685, Final residual = 0.0001197001, No Iterations 8
DILUPBiCGStab:  Solving for ILambda_14_0, Initial residual = 0.00579937, Final residual = 0.0005396642, No Iterations 6
DILUPBiCGStab:  Solving for ILambda_15_0, Initial residual = 0.00973076, Final residual = 0.0008200356, No Iterations 6
Radiation solver iter: 13
DILUPBiCGStab:  Solving for ILambda_0_0, Initial residual = 0.01022739, Final residual = 8.101815e-18, No Iterations 1
DILUPBiCGStab:  Solving for ILambda_1_0, Initial residual = 0.003352699, Final residual = 1.207978e-18, No Iterations 1
DILUPBiCGStab:  Solving for ILambda_6_0, Initial residual = 0.002698016, Final residual = 0.0001850191, No Iterations 2
DILUPBiCGStab:  Solving for ILambda_7_0, Initial residual = 0.003996022, Final residual = 0.000396431, No Iterations 2
DILUPBiCGStab:  Solving for ILambda_8_0, Initial residual = 0.002109524, Final residual = 1.641455e-18, No Iterations 1
DILUPBiCGStab:  Solving for ILambda_9_0, Initial residual = 0.002031126, Final residual = 1.910099e-18, No Iterations 1
DILUPBiCGStab:  Solving for ILambda_10_0, Initial residual = 0.001450315, Final residual = 1.929144e-18, No Iterations 1
DILUPBiCGStab:  Solving for ILambda_11_0, Initial residual = 0.000892511, Final residual = 2.407735e-18, No Iterations 1
DILUPBiCGStab:  Solving for ILambda_12_0, Initial residual = 0.001058805, Final residual = 9.86482e-05, No Iterations 3
DILUPBiCGStab:  Solving for ILambda_13_0, Initial residual = 0.002335542, Final residual = 0.0002307905, No Iterations 7
DILUPBiCGStab:  Solving for ILambda_14_0, Initial residual = 0.004798492, Final residual = 0.0004596345, No Iterations 6
DILUPBiCGStab:  Solving for ILambda_15_0, Initial residual = 0.008459376, Final residual = 0.000804922, No Iterations 4
Radiation solver iter: 14
DILUPBiCGStab:  Solving for ILambda_0_0, Initial residual = 0.008452196, Final residual = 6.260238e-18, No Iterations 1
DILUPBiCGStab:  Solving for ILambda_1_0, Initial residual = 0.002511647, Final residual = 1.063355e-18, No Iterations 1
DILUPBiCGStab:  Solving for ILambda_6_0, Initial residual = 0.00197249, Final residual = 0.0001279461, No Iterations 2
DILUPBiCGStab:  Solving for ILambda_7_0, Initial residual = 0.003330252, Final residual = 0.000318961, No Iterations 2
DILUPBiCGStab:  Solving for ILambda_8_0, Initial residual = 0.001784074, Final residual = 1.358171e-18, No Iterations 1
DILUPBiCGStab:  Solving for ILambda_9_0, Initial residual = 0.001638547, Final residual = 1.728223e-18, No Iterations 1
DILUPBiCGStab:  Solving for ILambda_10_0, Initial residual = 0.001116973, Final residual = 1.671853e-18, No Iterations 1
DILUPBiCGStab:  Solving for ILambda_12_0, Initial residual = 0.0008003115, Final residual = 5.352675e-05, No Iterations 4
DILUPBiCGStab:  Solving for ILambda_13_0, Initial residual = 0.001829527, Final residual = 0.000173821, No Iterations 6
DILUPBiCGStab:  Solving for ILambda_14_0, Initial residual = 0.003855176, Final residual = 8.759825e-05, No Iterations 10
DILUPBiCGStab:  Solving for ILambda_15_0, Initial residual = 0.007297332, Final residual = 0.0005649267, No Iterations 4
GAMG:  Solving for p_rgh, Initial residual = 0.02401956, Final residual = 4.809218e-05, No Iterations 2
limitVelocity limitU Limited 0 (0%) of cells, with max limit 5
time step continuity errors : sum local = 0.0002995595, global = 2.107822e-17, cumulative = 1.335707e-15
rho min/max : 0.5492343 0.9498403
DILUPBiCGStab:  Solving for omega, Initial residual = 0.0002004454, Final residual = 7.117553e-06, No Iterations 1
DILUPBiCGStab:  Solving for k, Initial residual = 0.0004033608, Final residual = 2.327693e-05, No Iterations 1
ExecutionTime = 1.11 s  ClockTime = 1 s

Time = 3904

DILUPBiCGStab:  Solving for h, Initial residual = 7.950558e-05, Final residual = 1.719618e-09, No Iterations 1
limitTemperature limitT Lower limited 0 (0%) of cells, with min limit 280
limitTemperature limitT Upper limited 0 (0%) of cells, with max limit 1200
limitTemperature limitT Unlimited Tmin 416.0296
limitTemperature limitT Unlimited Tmax 501.2135
GAMG:  Solving for p_rgh, Initial residual = 0.01731457, Final residual = 4.103686e-05, No Iterations 2
limitVelocity limitU Limited 0 (0%) of cells, with max limit 5
time step continuity errors : sum local = 0.0002590685, global = -3.223016e-17, cumulative = 1.303477e-15
rho min/max : 0.5734524 0.9505749
DILUPBiCGStab:  Solving for omega, Initial residual = 0.0001636083, Final residual = 5.532568e-06, No Iterations 1
DILUPBiCGStab:  Solving for k, Initial residual = 0.0003623195, Final residual = 2.08326e-05, No Iterations 1
ExecutionTime = 1.13 s  ClockTime = 1 s

Time = 3905

DILUPBiCGStab:  Solving for h, Initial residual = 8.119554e-05, Final residual = 1.857874e-09, No Iterations 1
limitTemperature limitT Lower limited 0 (0%) of cells, with min limit 280
limitTemperature limitT Upper limited 0 (0%) of cells, with max limit 1200
limitTemperature limitT Unlimited Tmin 416.0327
limitTemperature limitT Unlimited Tmax 501.2547
GAMG:  Solving for p_rgh, Initial residual = 0.01148461, Final residual = 3.370143e-05, No Iterations 2
limitVelocity limitU Limited 0 (0%) of cells, with max limit 5
time step continuity errors : sum local = 0.0002098243, global = -7.451003e-18, cumulative = 1.296026e-15
rho min/max : 0.558404 0.9512519
DILUPBiCGStab:  Solving for omega, Initial residual = 0.0001623854, Final residual = 5.756086e-06, No Iterations 1
DILUPBiCGStab:  Solving for k, Initial residual = 0.0003767286, Final residual = 2.157557e-05, No Iterations 1
ExecutionTime = 1.14 s  ClockTime = 1 s

Time = 3906

DILUPBiCGStab:  Solving for h, Initial residual = 8.297405e-05, Final residual = 2.15911e-09, No Iterations 1
limitTemperature limitT Lower limited 0 (0%) of cells, with min limit 280
limitTemperature limitT Upper limited 0 (0%) of cells, with max limit 1200
limitTemperature limitT Unlimited Tmin 416.0349
limitTemperature limitT Unlimited Tmax 501.3321
Radiation solver iter: 0
DILUPBiCGStab:  Solving for ILambda_0_0, Initial residual = 0.07813838, Final residual = 5.770575e-16, No Iterations 1
DILUPBiCGStab:  Solving for ILambda_1_0, Initial residual = 0.1589539, Final residual = 8.597363e-16, No Iterations 1
DILUPBiCGStab:  Solving for ILambda_2_0, Initial residual = 0.2539585, Final residual = 1.247186e-15, No Iterations 1
DILUPBiCGStab:  Solving for ILambda_3_0, Initial residual = 0.3830739, Final residual = 1.699166e-15, No Iterations 1
DILUPBiCGStab:  Solving for ILambda_4_0, Initial residual = 0.3987935, Final residual = 0.02105624, No Iterations 4
DILUPBiCGStab:  Solving for ILambda_5_0, Initial residual = 0.2772387, Final residual = 0.01931571, No Iterations 9
DILUPBiCGStab:  Solving for ILambda_6_0, Initial residual = 0.1793183, Final residual = 0.01661659, No Iterations 16
DILUPBiCGStab:  Solving for ILambda_7_0, Initial residual = 0.08779744, Final residual = 0.002368279, No Iterations 32
DILUPBiCGStab:  Solving for ILambda_8_0, Initial residual = 0.05314806, Final residual = 3.628535e-16, No Iterations 1
DILUPBiCGStab:  Solving for ILambda_9_0, Initial residual = 0.1080854, Final residual = 6.54385e-16, No Iterations 1
DILUPBiCGStab:  Solving for ILambda_10_0, Initial residual = 0.1604217, Final residual = 8.237298e-16, No Iterations 1
DILUPBiCGStab:  Solving for ILambda_11_0, Initial residual = 0.2243738, Final residual = 1.144207e-15, No Iterations 1
DILUPBiCGStab:  Solving for ILambda_12_0, Initial residual = 0.2575879, Final residual = 0.01601188, No Iterations 5
DILUPBiCGStab:  Solving for ILambda_13_0, Initial residual = 0.2302086, Final residual = 0.009865635, No Iterations 11
DILUPBiCGStab:  Solving for ILambda_14_0, Initial residual = 0.1948707, Final residual = 0.007276216, No Iterations 17
DILUPBiCGStab:  Solving for ILambda_15_0, Initial residual = 0.1619368, Final residual = 0.003041827, No Iterations 32
Radiation solver iter: 1
DILUPBiCGStab:  Solving for ILambda_0_0, Initial residual = 0.05641105, Final residual = 1.041977e-16, No Iterations 1
DILUPBiCGStab:  Solving for ILambda_1_0, Initial residual = 0.08844746, Final residual = 1.478314e-16, No Iterations 1
DILUPBiCGStab:  Solving for ILambda_2_0, Initial residual = 0.1090478, Final residual = 1.709886e-16, No Iterations 1
DILUPBiCGStab:  Solving for ILambda_3_0, Initial residual = 0.1136258, Final residual = 1.80363e-16, No Iterations 1
DILUPBiCGStab:  Solving for ILambda_4_0, Initial residual = 0.130107, Final residual = 0.01290918, No Iterations 3
DILUPBiCGStab:  Solving for ILambda_5_0, Initial residual = 0.1215036, Final residual = 0.01102455, No Iterations 6
DILUPBiCGStab:  Solving for ILambda_6_0, Initial residual = 0.09690718, Final residual = 0.008150087, No Iterations 9
DILUPBiCGStab:  Solving for ILambda_7_0, Initial residual = 0.05142237, Final residual = 0.00197032, No Iterations 13
DILUPBiCGStab:  Solving for ILambda_8_0, Initial residual = 0.01065698, Final residual = 2.590636e-17, No Iterations 1
DILUPBiCGStab:  Solving for ILambda_9_0, Initial residual = 0.01673741, Final residual = 4.751634e-17, No Iterations 1
DILUPBiCGStab:  Solving for ILambda_10_0, Initial residual = 0.02170509, Final residual = 6.493893e-17, No Iterations 1
DILUPBiCGStab:  Solving for ILambda_11_0, Initial residual = 0.02606496, Final residual = 9.913981e-17, No Iterations 1
DILUPBiCGStab:  Solving for ILambda_12_0, Initial residual = 0.04945114, Final residual = 0.002480564, No Iterations 4
DILUPBiCGStab:  Solving for ILambda_13_0, Initial residual = 0.04388947, Final residual = 6.266923e-05, No Iterations 12
DILUPBiCGStab:  Solving for ILambda_14_0, Initial residual = 0.03828825, Final residual = 0.003811511, No Iterations 12
DILUPBiCGStab:  Solving for ILambda_15_0, Initial residual = 0.03542969, Final residual = 0.002948042, No Iterations 20
Radiation solver iter: 2
DILUPBiCGStab:  Solving for ILambda_0_0, Initial residual = 0.04527013, Final residual = 7.487062e-17, No Iterations 1
DILUPBiCGStab:  Solving for ILambda_1_0, Initial residual = 0.06356088, Final residual = 7.984006e-17, No Iterations 1
DILUPBiCGStab:  Solving for ILambda_2_0, Initial residual = 0.07283606, Final residual = 6.404925e-17, No Iterations 1
DILUPBiCGStab:  Solving for ILambda_3_0, Initial residual = 0.06402169, Final residual = 6.107716e-17, No Iterations 1
DILUPBiCGStab:  Solving for ILambda_4_0, Initial residual = 0.07047893, Final residual = 0.003712606, No Iterations 3
DILUPBiCGStab:  Solving for ILambda_5_0, Initial residual = 0.07806755, Final residual = 0.0009927284, No Iterations 7
DILUPBiCGStab:  Solving for ILambda_6_0, Initial residual = 0.06216283, Final residual = 0.00521215, No Iterations 5
DILUPBiCGStab:  Solving for ILambda_7_0, Initial residual = 0.03480495, Final residual = 0.001802548, No Iterations 9
DILUPBiCGStab:  Solving for ILambda_8_0, Initial residual = 0.007620162, Final residual = 9.594028e-18, No Iterations 1
DILUPBiCGStab:  Solving for ILambda_9_0, Initial residual = 0.012521, Final residual = 2.386707e-17, No Iterations 1
DILUPBiCGStab:  Solving for ILambda_10_0, Initial residual = 0.01602088, Final residual = 3.557641e-17, No Iterations 1
DILUPBiCGStab:  Solving for ILambda_11_0, Initial residual = 0.01728495, Final residual = 5.368812e-17, No Iterations 1
DILUPBiCGStab:  Solving for ILambda_12_0, Initial residual = 0.0223326, Final residual = 0.0002178868, No Iterations 5
DILUPBiCGStab:  Solving for ILambda_13_0, Initial residual = 0.02608849, Final residual = 0.00244087, No Iterations 9
DILUPBiCGStab:  Solving for ILambda_14_0, Initial residual = 0.02857253, Final residual = 0.002814915, No Iterations 14
DILUPBiCGStab:  Solving for ILambda_15_0, Initial residual = 0.029609, Final residual = 0.00269903, No Iterations 24
Radiation solver iter: 3
DILUPBiCGStab:  Solving for ILambda_0_0, Initial residual = 0.03805627, Final residual = 6.03525e-17, No Iterations 1
DILUPBiCGStab:  Solving for ILambda_1_0, Initial residual = 0.04530812, Final residual = 4.226793e-17, No Iterations 1
DILUPBiCGStab:  Solving for ILambda_2_0, Initial residual = 0.0448494, Final residual = 3.475047e-17, No Iterations 1
DILUPBiCGStab:  Solving for ILambda_3_0, Initial residual = 0.03090178, Final residual = 3.018374e-17, No Iterations 1
DILUPBiCGStab:  Solving for ILambda_4_0, Initial residual = 0.03320193, Final residual = 0.001580901, No Iterations 2
DILUPBiCGStab:  Solving for ILambda_5_0, Initial residual = 0.04743663, Final residual = 0.0001341347, No Iterations 7
DILUPBiCGStab:  Solving for ILambda_6_0, Initial residual = 0.0445563, Final residual = 0.004124292, No Iterations 3
DILUPBiCGStab:  Solving for ILambda_7_0, Initial residual = 0.0243649, Final residual = 0.002275446, No Iterations 5
DILUPBiCGStab:  Solving for ILambda_8_0, Initial residual = 0.007156775, Final residual = 7.985345e-18, No Iterations 1
DILUPBiCGStab:  Solving for ILambda_9_0, Initial residual = 0.01195503, Final residual = 1.747036e-17, No Iterations 1
DILUPBiCGStab:  Solving for ILambda_10_0, Initial residual = 0.01412, Final residual = 2.380976e-17, No Iterations 1
DILUPBiCGStab:  Solving for ILambda_11_0, Initial residual = 0.01277404, Final residual = 3.285914e-17, No Iterations 1
DILUPBiCGStab:  Solving for ILambda_12_0, Initial residual = 0.01528473, Final residual = 0.001359994, No Iterations 4
DILUPBiCGStab:  Solving for ILambda_13_0, Initial residual = 0.02260353, Final residual = 0.001224973, No Iterations 8
DILUPBiCGStab:  Solving for ILambda_14_0, Initial residual = 0.02483165, Final residual = 0.002196859, No Iterations 11
DILUPBiCGStab:  Solving for ILambda_15_0, Initial residual = 0.02614474, Final residual = 0.001947991, No Iterations 10
Radiation solver iter: 4
DILUPBiCGStab:  Solving for ILambda_0_0, Initial residual = 0.03291511, Final residual = 4.540782e-17, No Iterations 1
DILUPBiCGStab:  Solving for ILambda_1_0, Initial residual = 0.03386738, Final residual = 2.840853e-17, No Iterations 1
DILUPBiCGStab:  Solving for ILambda_2_0, Initial residual = 0.02945662, Final residual = 1.965288e-17, No Iterations 1
DILUPBiCGStab:  Solving for ILambda_3_0, Initial residual = 0.01386705, Final residual = 1.057617e-17, No Iterations 1
DILUPBiCGStab:  Solving for ILambda_4_0, Initial residual = 0.01476231, Final residual = 0.001184278, No Iterations 2
DILUPBiCGStab:  Solving for ILambda_5_0, Initial residual = 0.031898, Final residual = 0.002306426, No Iterations 3
DILUPBiCGStab:  Solving for ILambda_6_0, Initial residual = 0.03330703, Final residual = 0.002487814, No Iterations 3
DILUPBiCGStab:  Solving for ILambda_7_0, Initial residual = 0.01905618, Final residual = 0.001771811, No Iterations 5
DILUPBiCGStab:  Solving for ILambda_8_0, Initial residual = 0.00650389, Final residual = 6.093334e-18, No Iterations 1
DILUPBiCGStab:  Solving for ILambda_9_0, Initial residual = 0.01074285, Final residual = 1.343897e-17, No Iterations 1
DILUPBiCGStab:  Solving for ILambda_10_0, Initial residual = 0.01157309, Final residual = 1.695351e-17, No Iterations 1
DILUPBiCGStab:  Solving for ILambda_11_0, Initial residual = 0.009194646, Final residual = 2.117998e-17, No Iterations 1
DILUPBiCGStab:  Solving for ILambda_12_0, Initial residual = 0.01111443, Final residual = 0.0004281501, No Iterations 4
DILUPBiCGStab:  Solving for ILambda_13_0, Initial residual = 0.01770525, Final residual = 0.001458848, No Iterations 8
DILUPBiCGStab:  Solving for ILambda_14_0, Initial residual = 0.02235737, Final residual = 0.0009137145, No Iterations 11
DILUPBiCGStab:  Solving for ILambda_15_0, Initial residual = 0.02349272, Final residual = 0.002072619, No Iterations 7
Radiation solver iter: 5
DILUPBiCGStab:  Solving for ILambda_0_0, Initial residual = 0.02823842, Final residual = 3.826874e-17, No Iterations 1
DILUPBiCGStab:  Solving for ILambda_1_0, Initial residual = 0.02593191, Final residual = 2.155012e-17, No Iterations 1
DILUPBiCGStab:  Solving for ILambda_2_0, Initial residual = 0.01996654, Final residual = 1.197303e-17, No Iterations 1
DILUPBiCGStab:  Solving for ILambda_3_0, Initial residual = 0.005892124, Final residual = 4.098663e-18, No Iterations 1
DILUPBiCGStab:  Solving for ILambda_4_0, Initial residual = 0.006507435, Final residual = 0.000422488, No Iterations 2
DILUPBiCGStab:  Solving for ILambda_5_0, Initial residual = 0.02188719, Final residual = 0.001860632, No Iterations 3
DILUPBiCGStab:  Solving for ILambda_6_0, Initial residual = 0.02521397, Final residual = 0.001499565, No Iterations 3
DILUPBiCGStab:  Solving for ILambda_7_0, Initial residual = 0.01521567, Final residual = 0.0004988261, No Iterations 6
DILUPBiCGStab:  Solving for ILambda_8_0, Initial residual = 0.0056423, Final residual = 4.851477e-18, No Iterations 1
DILUPBiCGStab:  Solving for ILambda_9_0, Initial residual = 0.009318645, Final residual = 1.119004e-17, No Iterations 1
DILUPBiCGStab:  Solving for ILambda_10_0, Initial residual = 0.009109976, Final residual = 1.187941e-17, No Iterations 1
DILUPBiCGStab:  Solving for ILambda_11_0, Initial residual = 0.006821721, Final residual = 1.468657e-17, No Iterations 1
DILUPBiCGStab:  Solving for ILambda_12_0, Initial residual = 0.008045367, Final residual = 0.000531536, No Iterations 3
DILUPBiCGStab:  Solving for ILambda_13_0, Initial residual = 0.01366773, Final residual = 0.00113154, No Iterations 6
DILUPBiCGStab:  Solving for ILambda_14_0, Initial residual = 0.01878627, Final residual = 0.00139428, No Iterations 8
DILUPBiCGStab:  Solving for ILambda_15_0, Initial residual = 0.02111772, Final residual = 0.002053807, No Iterations 8
Radiation solver iter: 6
DILUPBiCGStab:  Solving for ILambda_0_0, Initial residual = 0.02406599, Final residual = 2.953174e-17, No Iterations 1
DILUPBiCGStab:  Solving for ILambda_1_0, Initial residual = 0.01960704, Final residual = 2.030463e-17, No Iterations 1
DILUPBiCGStab:  Solving for ILambda_2_0, Initial residual = 0.01381164, Final residual = 6.839091e-18, No Iterations 1
DILUPBiCGStab:  Solving for ILambda_3_0, Initial residual = 0.002300624, Final residual = 1.21427e-18, No Iterations 1
DILUPBiCGStab:  Solving for ILambda_4_0, Initial residual = 0.002505383, Final residual = 0.0001446224, No Iterations 2
DILUPBiCGStab:  Solving for ILambda_5_0, Initial residual = 0.0151695, Final residual = 0.001482266, No Iterations 2
DILUPBiCGStab:  Solving for ILambda_6_0, Initial residual = 0.01887931, Final residual = 0.001096705, No Iterations 3
DILUPBiCGStab:  Solving for ILambda_7_0, Initial residual = 0.01202289, Final residual = 0.000873567, No Iterations 4
DILUPBiCGStab:  Solving for ILambda_8_0, Initial residual = 0.004875586, Final residual = 4.199629e-18, No Iterations 1
DILUPBiCGStab:  Solving for ILambda_9_0, Initial residual = 0.007925178, Final residual = 8.004408e-18, No Iterations 1
DILUPBiCGStab:  Solving for ILambda_10_0, Initial residual = 0.007115089, Final residual = 8.840438e-18, No Iterations 1
DILUPBiCGStab:  Solving for ILambda_11_0, Initial residual = 0.005196894, Final residual = 1.198676e-17, No Iterations 1
DILUPBiCGStab:  Solving for ILambda_12_0, Initial residual = 0.006286516, Final residual = 0.0003052278, No Iterations 4
DILUPBiCGStab:  Solving for ILambda_13_0, Initial residual = 0.01088242, Final residual = 0.001033185, No Iterations 6
DILUPBiCGStab:  Solving for ILambda_14_0, Initial residual = 0.01588116, Final residual = 0.0008255007, No Iterations 9
DILUPBiCGStab:  Solving for ILambda_15_0, Initial residual = 0.0187587, Final residual = 0.001778933, No Iterations 7
Radiation solver iter: 7
DILUPBiCGStab:  Solving for ILambda_0_0, Initial residual = 0.02041149, Final residual = 2.395572e-17, No Iterations 1
DILUPBiCGStab:  Solving for ILambda_1_0, Initial residual = 0.01464815, Final residual = 9.010952e-18, No Iterations 1
DILUPBiCGStab:  Solving for ILambda_2_0, Initial residual = 0.009418311, Final residual = 5.152935e-18, No Iterations 1
DILUPBiCGStab:  Solving for ILambda_3_0, Initial residual = 0.0008118029, Final residual = 4.003468e-19, No Iterations 1
DILUPBiCGStab:  Solving for ILambda_4_0, Initial residual = 0.0009069833, Final residual = 5.634118e-05, No Iterations 2
DILUPBiCGStab:  Solving for ILambda_5_0, Initial residual = 0.01020757, Final residual = 0.000822231, No Iterations 2
DILUPBiCGStab:  Solving for ILambda_6_0, Initial residual = 0.01416021, Final residual = 0.0008519593, No Iterations 3
DILUPBiCGStab:  Solving for ILambda_7_0, Initial residual = 0.00981248, Final residual = 0.0005096335, No Iterations 4
DILUPBiCGStab:  Solving for ILambda_8_0, Initial residual = 0.004175624, Final residual = 3.452921e-18, No Iterations 1
DILUPBiCGStab:  Solving for ILambda_9_0, Initial residual = 0.006651752, Final residual = 6.44988e-18, No Iterations 1
DILUPBiCGStab:  Solving for ILambda_10_0, Initial residual = 0.005570469, Final residual = 8.015133e-18, No Iterations 1
DILUPBiCGStab:  Solving for ILambda_11_0, Initial residual = 0.003988382, Final residual = 9.56027e-18, No Iterations 1
DILUPBiCGStab:  Solving for ILambda_12_0, Initial residual = 0.004600319, Final residual = 0.0002259509, No Iterations 4
DILUPBiCGStab:  Solving for ILambda_13_0, Initial residual = 0.008473158, Final residual = 0.0003408939, No Iterations 8
DILUPBiCGStab:  Solving for ILambda_14_0, Initial residual = 0.01303233, Final residual = 0.00094416, No Iterations 9
DILUPBiCGStab:  Solving for ILambda_15_0, Initial residual = 0.01619786, Final residual = 0.001165357, No Iterations 7
Radiation solver iter: 8
DILUPBiCGStab:  Solving for ILambda_0_0, Initial residual = 0.01720739, Final residual = 1.779486e-17, No Iterations 1
DILUPBiCGStab:  Solving for ILambda_1_0, Initial residual = 0.01090358, Final residual = 5.506811e-18, No Iterations 1
DILUPBiCGStab:  Solving for ILambda_2_0, Initial residual = 0.006248242, Final residual = 3.222578e-18, No Iterations 1
DILUPBiCGStab:  Solving for ILambda_5_0, Initial residual = 0.006594976, Final residual = 0.0004364699, No Iterations 2
DILUPBiCGStab:  Solving for ILambda_6_0, Initial residual = 0.01061813, Final residual = 0.0007065086, No Iterations 4
DILUPBiCGStab:  Solving for ILambda_7_0, Initial residual = 0.007948583, Final residual = 0.0006834902, No Iterations 3
DILUPBiCGStab:  Solving for ILambda_8_0, Initial residual = 0.003604866, Final residual = 3.219317e-18, No Iterations 1
DILUPBiCGStab:  Solving for ILambda_9_0, Initial residual = 0.005533068, Final residual = 4.926753e-18, No Iterations 1
DILUPBiCGStab:  Solving for ILambda_10_0, Initial residual = 0.004482832, Final residual = 5.838449e-18, No Iterations 1
DILUPBiCGStab:  Solving for ILambda_11_0, Initial residual = 0.003093221, Final residual = 7.750016e-18, No Iterations 1
DILUPBiCGStab:  Solving for ILambda_12_0, Initial residual = 0.003538047, Final residual = 0.0002221157, No Iterations 4
DILUPBiCGStab:  Solving for ILambda_13_0, Initial residual = 0.006718676, Final residual = 0.0006270486, No Iterations 6
DILUPBiCGStab:  Solving for ILambda_14_0, Initial residual = 0.0108617, Final residual = 0.0008362157, No Iterations 6
DILUPBiCGStab:  Solving for ILambda_15_0, Initial residual = 0.01384612, Final residual = 0.0004515095, No Iterations 8
Radiation solver iter: 9
DILUPBiCGStab:  Solving for ILambda_0_0, Initial residual = 0.01442934, Final residual = 1.418532e-17, No Iterations 1
DILUPBiCGStab:  Solving for ILambda_1_0, Initial residual = 0.00812443, Final residual = 4.287625e-18, No Iterations 1
[...]
DILUPBiCGStab:  Solving for ILambda_3_0, Initial residual = 0.02243407, Final residual = 1.646167e-17, No Iterations 1
DILUPBiCGStab:  Solving for ILambda_4_0, Initial residual = 0.02384359, Final residual = 0.002009514, No Iterations 2
DILUPBiCGStab:  Solving for ILambda_5_0, Initial residual = 0.07722446, Final residual = 0.006523163, No Iterations 4
DILUPBiCGStab:  Solving for ILambda_6_0, Initial residual = 0.08989244, Final residual = 0.007224438, No Iterations 3
DILUPBiCGStab:  Solving for ILambda_7_0, Initial residual = 0.05668106, Final residual = 0.004752822, No Iterations 3
DILUPBiCGStab:  Solving for ILambda_8_0, Initial residual = 0.02119506, Final residual = 1.881241e-17, No Iterations 1
DILUPBiCGStab:  Solving for ILambda_9_0, Initial residual = 0.04123186, Final residual = 4.218325e-17, No Iterations 1
DILUPBiCGStab:  Solving for ILambda_10_0, Initial residual = 0.0486457, Final residual = 6.16983e-17, No Iterations 1
DILUPBiCGStab:  Solving for ILambda_11_0, Initial residual = 0.03640481, Final residual = 7.801594e-17, No Iterations 1
DILUPBiCGStab:  Solving for ILambda_12_0, Initial residual = 0.04248005, Final residual = 0.003091029, No Iterations 3
DILUPBiCGStab:  Solving for ILambda_13_0, Initial residual = 0.06913884, Final residual = 0.005440645, No Iterations 6
DILUPBiCGStab:  Solving for ILambda_14_0, Initial residual = 0.0743587, Final residual = 0.006873657, No Iterations 8
DILUPBiCGStab:  Solving for ILambda_15_0, Initial residual = 0.07416294, Final residual = 0.006430942, No Iterations 8
Radiation solver iter: 5
DILUPBiCGStab:  Solving for ILambda_0_0, Initial residual = 0.07718585, Final residual = 1.023095e-16, No Iterations 1
DILUPBiCGStab:  Solving for ILambda_1_0, Initial residual = 0.06230452, Final residual = 4.362529e-17, No Iterations 1
DILUPBiCGStab:  Solving for ILambda_2_0, Initial residual = 0.04629358, Final residual = 3.089758e-17, No Iterations 1
DILUPBiCGStab:  Solving for ILambda_3_0, Initial residual = 0.009404917, Final residual = 7.234699e-18, No Iterations 1
DILUPBiCGStab:  Solving for ILambda_4_0, Initial residual = 0.01030885, Final residual = 0.0007117882, No Iterations 2
DILUPBiCGStab:  Solving for ILambda_5_0, Initial residual = 0.05257567, Final residual = 0.004275962, No Iterations 3
DILUPBiCGStab:  Solving for ILambda_6_0, Initial residual = 0.07179836, Final residual = 0.004816251, No Iterations 3
DILUPBiCGStab:  Solving for ILambda_7_0, Initial residual = 0.0442347, Final residual = 0.003066194, No Iterations 3
DILUPBiCGStab:  Solving for ILambda_8_0, Initial residual = 0.01876603, Final residual = 1.669327e-17, No Iterations 1
DILUPBiCGStab:  Solving for ILambda_9_0, Initial residual = 0.03707705, Final residual = 3.369642e-17, No Iterations 1
DILUPBiCGStab:  Solving for ILambda_10_0, Initial residual = 0.03958879, Final residual = 4.436179e-17, No Iterations 1
DILUPBiCGStab:  Solving for ILambda_11_0, Initial residual = 0.02796527, Final residual = 6.235165e-17, No Iterations 1
DILUPBiCGStab:  Solving for ILambda_12_0, Initial residual = 0.03373039, Final residual = 0.002176411, No Iterations 3
DILUPBiCGStab:  Solving for ILambda_13_0, Initial residual = 0.05618736, Final residual = 0.005497764, No Iterations 5
DILUPBiCGStab:  Solving for ILambda_14_0, Initial residual = 0.06638817, Final residual = 0.006077419, No Iterations 9
DILUPBiCGStab:  Solving for ILambda_15_0, Initial residual = 0.067382, Final residual = 0.003697777, No Iterations 10
Radiation solver iter: 6
DILUPBiCGStab:  Solving for ILambda_0_0, Initial residual = 0.06334978, Final residual = 8.159694e-17, No Iterations 1
DILUPBiCGStab:  Solving for ILambda_1_0, Initial residual = 0.04831774, Final residual = 3.422002e-17, No Iterations 1
DILUPBiCGStab:  Solving for ILambda_2_0, Initial residual = 0.03210677, Final residual = 2.038427e-17, No Iterations 1
DILUPBiCGStab:  Solving for ILambda_3_0, Initial residual = 0.00371758, Final residual = 2.381179e-18, No Iterations 1
DILUPBiCGStab:  Solving for ILambda_4_0, Initial residual = 0.003966874, Final residual = 0.0002486703, No Iterations 2
DILUPBiCGStab:  Solving for ILambda_5_0, Initial residual = 0.03591751, Final residual = 0.003208825, No Iterations 3
DILUPBiCGStab:  Solving for ILambda_6_0, Initial residual = 0.05640158, Final residual = 0.003813449, No Iterations 3
DILUPBiCGStab:  Solving for ILambda_7_0, Initial residual = 0.03543263, Final residual = 0.002835707, No Iterations 3
DILUPBiCGStab:  Solving for ILambda_8_0, Initial residual = 0.01641286, Final residual = 1.215548e-17, No Iterations 1
DILUPBiCGStab:  Solving for ILambda_9_0, Initial residual = 0.0328594, Final residual = 2.769962e-17, No Iterations 1
DILUPBiCGStab:  Solving for ILambda_10_0, Initial residual = 0.03217882, Final residual = 3.696432e-17, No Iterations 1
DILUPBiCGStab:  Solving for ILambda_11_0, Initial residual = 0.02334525, Final residual = 5.213699e-17, No Iterations 1
DILUPBiCGStab:  Solving for ILambda_12_0, Initial residual = 0.0277598, Final residual = 0.002632643, No Iterations 4
DILUPBiCGStab:  Solving for ILambda_13_0, Initial residual = 0.04510367, Final residual = 0.003694857, No Iterations 6
DILUPBiCGStab:  Solving for ILambda_14_0, Initial residual = 0.05744789, Final residual = 0.002839599, No Iterations 9
DILUPBiCGStab:  Solving for ILambda_15_0, Initial residual = 0.05988192, Final residual = 0.003188233, No Iterations 9
Radiation solver iter: 7
DILUPBiCGStab:  Solving for ILambda_0_0, Initial residual = 0.05177764, Final residual = 7.02205e-17, No Iterations 1
DILUPBiCGStab:  Solving for ILambda_1_0, Initial residual = 0.03706687, Final residual = 2.087023e-17, No Iterations 1
DILUPBiCGStab:  Solving for ILambda_2_0, Initial residual = 0.02147148, Final residual = 1.215556e-17, No Iterations 1
DILUPBiCGStab:  Solving for ILambda_3_0, Initial residual = 0.001340872, Final residual = 9.364128e-19, No Iterations 1
DILUPBiCGStab:  Solving for ILambda_4_0, Initial residual = 0.001457249, Final residual = 0.0001050699, No Iterations 2
DILUPBiCGStab:  Solving for ILambda_5_0, Initial residual = 0.02320064, Final residual = 0.001656004, No Iterations 3
DILUPBiCGStab:  Solving for ILambda_6_0, Initial residual = 0.04405864, Final residual = 0.003769413, No Iterations 2
DILUPBiCGStab:  Solving for ILambda_7_0, Initial residual = 0.0288054, Final residual = 0.001177547, No Iterations 4
DILUPBiCGStab:  Solving for ILambda_8_0, Initial residual = 0.01420961, Final residual = 1.098772e-17, No Iterations 1
DILUPBiCGStab:  Solving for ILambda_9_0, Initial residual = 0.02880471, Final residual = 2.360573e-17, No Iterations 1
DILUPBiCGStab:  Solving for ILambda_10_0, Initial residual = 0.02615687, Final residual = 3.039599e-17, No Iterations 1
DILUPBiCGStab:  Solving for ILambda_11_0, Initial residual = 0.01865163, Final residual = 4.426801e-17, No Iterations 1
DILUPBiCGStab:  Solving for ILambda_12_0, Initial residual = 0.02198479, Final residual = 0.001738509, No Iterations 4
DILUPBiCGStab:  Solving for ILambda_13_0, Initial residual = 0.03643052, Final residual = 0.002297071, No Iterations 7
DILUPBiCGStab:  Solving for ILambda_14_0, Initial residual = 0.04819459, Final residual = 0.002727291, No Iterations 9
DILUPBiCGStab:  Solving for ILambda_15_0, Initial residual = 0.05197968, Final residual = 0.004599147, No Iterations 6
Radiation solver iter: 8
DILUPBiCGStab:  Solving for ILambda_0_0, Initial residual = 0.04214435, Final residual = 4.504156e-17, No Iterations 1
DILUPBiCGStab:  Solving for ILambda_1_0, Initial residual = 0.02835984, Final residual = 1.757529e-17, No Iterations 1
DILUPBiCGStab:  Solving for ILambda_2_0, Initial residual = 0.01381675, Final residual = 6.246575e-18, No Iterations 1
DILUPBiCGStab:  Solving for ILambda_3_0, Initial residual = 0.0005167605, Final residual = 4.186143e-19, No Iterations 1
DILUPBiCGStab:  Solving for ILambda_4_0, Initial residual = 0.0005781136, Final residual = 6.742127e-05, No Iterations 2
DILUPBiCGStab:  Solving for ILambda_5_0, Initial residual = 0.01426137, Final residual = 0.001167538, No Iterations 2
DILUPBiCGStab:  Solving for ILambda_6_0, Initial residual = 0.03460273, Final residual = 0.003130841, No Iterations 3
DILUPBiCGStab:  Solving for ILambda_7_0, Initial residual = 0.02330945, Final residual = 0.0007926949, No Iterations 4
DILUPBiCGStab:  Solving for ILambda_8_0, Initial residual = 0.01224566, Final residual = 9.473537e-18, No Iterations 1
DILUPBiCGStab:  Solving for ILambda_9_0, Initial residual = 0.02506515, Final residual = 1.9405e-17, No Iterations 1
DILUPBiCGStab:  Solving for ILambda_10_0, Initial residual = 0.02135283, Final residual = 2.517869e-17, No Iterations 1
DILUPBiCGStab:  Solving for ILambda_11_0, Initial residual = 0.01427354, Final residual = 3.392258e-17, No Iterations 1
DILUPBiCGStab:  Solving for ILambda_12_0, Initial residual = 0.01651627, Final residual = 0.001216252, No Iterations 4
DILUPBiCGStab:  Solving for ILambda_13_0, Initial residual = 0.02975668, Final residual = 0.00218763, No Iterations 6
DILUPBiCGStab:  Solving for ILambda_14_0, Initial residual = 0.04179156, Final residual = 0.003273309, No Iterations 6
DILUPBiCGStab:  Solving for ILambda_15_0, Initial residual = 0.04503545, Final residual = 0.004491668, No Iterations 5
Radiation solver iter: 9
DILUPBiCGStab:  Solving for ILambda_0_0, Initial residual = 0.03424428, Final residual = 3.433998e-17, No Iterations 1
DILUPBiCGStab:  Solving for ILambda_1_0, Initial residual = 0.02194762, Final residual = 1.278393e-17, No Iterations 1
DILUPBiCGStab:  Solving for ILambda_2_0, Initial residual = 0.008589409, Final residual = 4.456927e-18, No Iterations 1
DILUPBiCGStab:  Solving for ILambda_5_0, Initial residual = 0.008503447, Final residual = 0.0006549642, No Iterations 2
DILUPBiCGStab:  Solving for ILambda_6_0, Initial residual = 0.02707529, Final residual = 0.002045327, No Iterations 2
DILUPBiCGStab:  Solving for ILambda_7_0, Initial residual = 0.01896349, Final residual = 0.001706268, No Iterations 2
DILUPBiCGStab:  Solving for ILambda_8_0, Initial residual = 0.01065264, Final residual = 7.103062e-18, No Iterations 1
DILUPBiCGStab:  Solving for ILambda_9_0, Initial residual = 0.02158226, Final residual = 1.749675e-17, No Iterations 1
DILUPBiCGStab:  Solving for ILambda_10_0, Initial residual = 0.01747034, Final residual = 2.034355e-17, No Iterations 1
DILUPBiCGStab:  Solving for ILambda_11_0, Initial residual = 0.01079784, Final residual = 2.447099e-17, No Iterations 1
DILUPBiCGStab:  Solving for ILambda_12_0, Initial residual = 0.01266084, Final residual = 0.000826947, No Iterations 4
DILUPBiCGStab:  Solving for ILambda_13_0, Initial residual = 0.02473885, Final residual = 0.0007071338, No Iterations 8
DILUPBiCGStab:  Solving for ILambda_14_0, Initial residual = 0.03621607, Final residual = 0.003273332, No Iterations 4
DILUPBiCGStab:  Solving for ILambda_15_0, Initial residual = 0.03878906, Final residual = 0.001246843, No Iterations 7
Radiation solver iter: 10
DILUPBiCGStab:  Solving for ILambda_0_0, Initial residual = 0.02777495, Final residual = 2.594999e-17, No Iterations 1
DILUPBiCGStab:  Solving for ILambda_1_0, Initial residual = 0.01717935, Final residual = 7.897414e-18, No Iterations 1
DILUPBiCGStab:  Solving for ILambda_2_0, Initial residual = 0.005159071, Final residual = 2.960011e-18, No Iterations 1
DILUPBiCGStab:  Solving for ILambda_5_0, Initial residual = 0.004872804, Final residual = 0.0003005713, No Iterations 2
DILUPBiCGStab:  Solving for ILambda_6_0, Initial residual = 0.02109609, Final residual = 0.001649816, No Iterations 2
DILUPBiCGStab:  Solving for ILambda_7_0, Initial residual = 0.01562153, Final residual = 0.00146282, No Iterations 3
DILUPBiCGStab:  Solving for ILambda_8_0, Initial residual = 0.009282223, Final residual = 6.76468e-18, No Iterations 1
DILUPBiCGStab:  Solving for ILambda_9_0, Initial residual = 0.01846373, Final residual = 1.502708e-17, No Iterations 1
DILUPBiCGStab:  Solving for ILambda_10_0, Initial residual = 0.01428615, Final residual = 1.545327e-17, No Iterations 1
DILUPBiCGStab:  Solving for ILambda_11_0, Initial residual = 0.008398221, Final residual = 1.940036e-17, No Iterations 1
DILUPBiCGStab:  Solving for ILambda_12_0, Initial residual = 0.009945652, Final residual = 0.0004553432, No Iterations 4
DILUPBiCGStab:  Solving for ILambda_13_0, Initial residual = 0.02010702, Final residual = 0.001952345, No Iterations 7
DILUPBiCGStab:  Solving for ILambda_14_0, Initial residual = 0.0315483, Final residual = 0.002928768, No Iterations 6
DILUPBiCGStab:  Solving for ILambda_15_0, Initial residual = 0.03270926, Final residual = 0.002775313, No Iterations 5
Radiation solver iter: 11
DILUPBiCGStab:  Solving for ILambda_0_0, Initial residual = 0.02251542, Final residual = 1.922518e-17, No Iterations 1
DILUPBiCGStab:  Solving for ILambda_1_0, Initial residual = 0.01353626, Final residual = 7.334251e-18, No Iterations 1
DILUPBiCGStab:  Solving for ILambda_2_0, Initial residual = 0.002991108, Final residual = 1.03881e-18, No Iterations 1
DILUPBiCGStab:  Solving for ILambda_5_0, Initial residual = 0.002710306, Final residual = 0.0001616266, No Iterations 2
DILUPBiCGStab:  Solving for ILambda_6_0, Initial residual = 0.01634432, Final residual = 0.001288418, No Iterations 2
DILUPBiCGStab:  Solving for ILambda_7_0, Initial residual = 0.01287349, Final residual = 0.000397666, No Iterations 4
DILUPBiCGStab:  Solving for ILambda_8_0, Initial residual = 0.008013113, Final residual = 5.090077e-18, No Iterations 1
DILUPBiCGStab:  Solving for ILambda_9_0, Initial residual = 0.01564194, Final residual = 1.219147e-17, No Iterations 1
DILUPBiCGStab:  Solving for ILambda_10_0, Initial residual = 0.01158459, Final residual = 1.246477e-17, No Iterations 1
DILUPBiCGStab:  Solving for ILambda_11_0, Initial residual = 0.006611702, Final residual = 1.517065e-17, No Iterations 1
DILUPBiCGStab:  Solving for ILambda_12_0, Initial residual = 0.007837154, Final residual = 0.0002794046, No Iterations 4
DILUPBiCGStab:  Solving for ILambda_13_0, Initial residual = 0.01660438, Final residual = 0.001647105, No Iterations 5
DILUPBiCGStab:  Solving for ILambda_14_0, Initial residual = 0.02685028, Final residual = 0.00228635, No Iterations 5
DILUPBiCGStab:  Solving for ILambda_15_0, Initial residual = 0.02836089, Final residual = 0.002246703, No Iterations 4
Radiation solver iter: 12
DILUPBiCGStab:  Solving for ILambda_0_0, Initial residual = 0.01821801, Final residual = 1.533065e-17, No Iterations 1
DILUPBiCGStab:  Solving for ILambda_1_0, Initial residual = 0.01063091, Final residual = 4.629429e-18, No Iterations 1
DILUPBiCGStab:  Solving for ILambda_2_0, Initial residual = 0.001677479, Final residual = 5.691893e-19, No Iterations 1
DILUPBiCGStab:  Solving for ILambda_5_0, Initial residual = 0.00146708, Final residual = 0.0001023727, No Iterations 2
DILUPBiCGStab:  Solving for ILambda_6_0, Initial residual = 0.01248293, Final residual = 0.0008264826, No Iterations 2
DILUPBiCGStab:  Solving for ILambda_7_0, Initial residual = 0.01037905, Final residual = 0.0007681821, No Iterations 2
DILUPBiCGStab:  Solving for ILambda_8_0, Initial residual = 0.006856486, Final residual = 4.314087e-18, No Iterations 1
DILUPBiCGStab:  Solving for ILambda_9_0, Initial residual = 0.01313832, Final residual = 9.325419e-18, No Iterations 1
DILUPBiCGStab:  Solving for ILambda_10_0, Initial residual = 0.009303672, Final residual = 9.503004e-18, No Iterations 1
DILUPBiCGStab:  Solving for ILambda_11_0, Initial residual = 0.005229343, Final residual = 1.15786e-17, No Iterations 1
DILUPBiCGStab:  Solving for ILambda_12_0, Initial residual = 0.0061646, Final residual = 0.0002045024, No Iterations 4
DILUPBiCGStab:  Solving for ILambda_13_0, Initial residual = 0.01363202, Final residual = 0.001313461, No Iterations 4
DILUPBiCGStab:  Solving for ILambda_14_0, Initial residual = 0.0226866, Final residual = 0.00181415, No Iterations 4
DILUPBiCGStab:  Solving for ILambda_15_0, Initial residual = 0.02424582, Final residual = 0.001929864, No Iterations 4
Radiation solver iter: 13
DILUPBiCGStab:  Solving for ILambda_0_0, Initial residual = 0.01473639, Final residual = 1.163587e-17, No Iterations 1
DILUPBiCGStab:  Solving for ILambda_1_0, Initial residual = 0.008241513, Final residual = 3.022102e-18, No Iterations 1
DILUPBiCGStab:  Solving for ILambda_2_0, Initial residual = 0.0009091115, Final residual = 3.971496e-19, No Iterations 1
DILUPBiCGStab:  Solving for ILambda_5_0, Initial residual = 0.000787397, Final residual = 5.932392e-05, No Iterations 2
DILUPBiCGStab:  Solving for ILambda_6_0, Initial residual = 0.009264811, Final residual = 0.0004316604, No Iterations 2
DILUPBiCGStab:  Solving for ILambda_7_0, Initial residual = 0.008528167, Final residual = 0.0007173465, No Iterations 2
DILUPBiCGStab:  Solving for ILambda_8_0, Initial residual = 0.005824402, Final residual = 3.997484e-18, No Iterations 1
DILUPBiCGStab:  Solving for ILambda_9_0, Initial residual = 0.01093828, Final residual = 7.062793e-18, No Iterations 1
DILUPBiCGStab:  Solving for ILambda_10_0, Initial residual = 0.00737065, Final residual = 7.826329e-18, No Iterations 1
DILUPBiCGStab:  Solving for ILambda_11_0, Initial residual = 0.004125088, Final residual = 9.443415e-18, No Iterations 1
DILUPBiCGStab:  Solving for ILambda_12_0, Initial residual = 0.004849514, Final residual = 0.00016018, No Iterations 4
DILUPBiCGStab:  Solving for ILambda_13_0, Initial residual = 0.01088537, Final residual = 0.00106345, No Iterations 5
DILUPBiCGStab:  Solving for ILambda_14_0, Initial residual = 0.0189, Final residual = 0.001814094, No Iterations 5
DILUPBiCGStab:  Solving for ILambda_15_0, Initial residual = 0.02070075, Final residual = 0.0008843707, No Iterations 5
Radiation solver iter: 14
DILUPBiCGStab:  Solving for ILambda_0_0, Initial residual = 0.01189853, Final residual = 8.829844e-18, No Iterations 1
DILUPBiCGStab:  Solving for ILambda_1_0, Initial residual = 0.006295653, Final residual = 2.57326e-18, No Iterations 1
DILUPBiCGStab:  Solving for ILambda_6_0, Initial residual = 0.006726429, Final residual = 0.0005376938, No Iterations 2
DILUPBiCGStab:  Solving for ILambda_7_0, Initial residual = 0.007049392, Final residual = 0.0004833593, No Iterations 3
DILUPBiCGStab:  Solving for ILambda_8_0, Initial residual = 0.004891375, Final residual = 3.282438e-18, No Iterations 1
DILUPBiCGStab:  Solving for ILambda_9_0, Initial residual = 0.008997656, Final residual = 6.167492e-18, No Iterations 1
DILUPBiCGStab:  Solving for ILambda_10_0, Initial residual = 0.005774353, Final residual = 5.910177e-18, No Iterations 1
DILUPBiCGStab:  Solving for ILambda_11_0, Initial residual = 0.003223931, Final residual = 7.021846e-18, No Iterations 1
DILUPBiCGStab:  Solving for ILambda_12_0, Initial residual = 0.00378529, Final residual = 0.0001195368, No Iterations 4
DILUPBiCGStab:  Solving for ILambda_13_0, Initial residual = 0.008489281, Final residual = 0.000434498, No Iterations 6
DILUPBiCGStab:  Solving for ILambda_14_0, Initial residual = 0.01566121, Final residual = 0.001255147, No Iterations 6
DILUPBiCGStab:  Solving for ILambda_15_0, Initial residual = 0.01730644, Final residual = 0.001557633, No Iterations 3
GAMG:  Solving for p_rgh, Initial residual = 0.0004060989, Final residual = 1.216233e-06, No Iterations 2
limitVelocity limitU Limited 0 (0%) of cells, with max limit 5
time step continuity errors : sum local = 6.730863e-06, global = 1.958799e-17, cumulative = 1.971014e-15
rho min/max : 0.4944453 0.9519716
DILUPBiCGStab:  Solving for omega, Initial residual = 0.0001131833, Final residual = 3.061612e-06, No Iterations 1
DILUPBiCGStab:  Solving for k, Initial residual = 0.0001980725, Final residual = 9.810569e-06, No Iterations 1
ExecutionTime = 51.23 s  ClockTime = 51 s

surfaceFieldValue wallT write:
    areaAverage(plate) of T = 602.8407

surfaceFieldValue wallTriser write:
    areaAverage(riser) of T = 388.8101

End

