/*---------------------------------------------------------------------------*\
| =========                 |                                                 |
| \\      /  F ield         | OpenFOAM: The Open Source CFD Toolbox           |
|  \\    /   O peration     | Version:  2312                                  |
|   \\  /    A nd           | Website:  www.openfoam.com                      |
|    \\/     M anipulation  |                                                 |
\*---------------------------------------------------------------------------*/
Build  : _c39a0f64-20231220 OPENFOAM=2312 version=2312
Arch   : "LSB;label=32;scalar=64"
Exec   : buoyantSimpleFoam
Date   : Jul 02 2026
Time   : 08:40:27
Host   : bf22502bb4bb
PID    : 231
I/O    : uncollated
Case   : /case
nProcs : 1
trapFpe: Floating point exception trapping enabled (FOAM_SIGFPE).
fileModificationChecking : Monitoring run-time modified files using timeStampMaster (fileModificationSkew 5, maxFileModificationPolls 20)
allowSystemOperations : Allowing user-supplied system call operations

// * * * * * * * * * * * * * * * * * * * * * * * * * * * * * * * * * * * * * //
Create time

Create mesh for time = 3000


SIMPLE: convergence criteria
    field p_rgh	 tolerance 0.0001
    field U	 tolerance 0.0001
    field h	 tolerance 0.0001
    field "(k|omega)"	 tolerance 0.001

Reading thermophysical properties

Selecting thermodynamics package 
{
    type            heRhoThermo;
    mixture         pureMixture;
    transport       const;
    thermo          hConst;
    equationOfState perfectGas;
    specie          specie;
    energy          sensibleEnthalpy;
}

Reading field U

Reading/calculating face flux field phi

Creating turbulence model

Selecting turbulence model type RAS
Selecting RAS turbulence model kOmegaSST
Selecting patchDistMethod meshWave
RAS
{
    RASModel        kOmegaSST;
    turbulence      on;
    printCoeffs     on;
    alphaK1         0.85;
    alphaK2         1;
    alphaOmega1     0.5;
    alphaOmega2     0.856;
    gamma1          0.5555556;
    gamma2          0.44;
    beta1           0.075;
    beta2           0.0828;
    betaStar        0.09;
    a1              0.31;
    b1              1;
    c1              10;
    F3              false;
    decayControl    false;
    kInf            0;
    omegaInf        0;
}


Reading g

Reading hRef
Calculating field g.h

Reading field p_rgh

No MRF models present

Selecting radiationModel fvDOM
Selecting absorptionEmissionModel constantAbsorptionEmission
Selecting scatterModel none
Selecting sootModel none
fvDOM : Allocated 16 rays with average orientation:
	I0 : dAve : 	(0.1195698 0.6011177 2.944771e-33) : omega : 	0.7853982 : d : 	(0.1950903 0.9807853 6.123234e-17)
	I1 : dAve : 	(0.3405058 0.509603 2.944771e-33) : omega : 	0.7853982 : d : 	(0.5555702 0.8314696 6.123234e-17)
	I2 : dAve : 	(0.509603 0.3405058 2.944771e-33) : omega : 	0.7853982 : d : 	(0.8314696 0.5555702 6.123234e-17)
	I3 : dAve : 	(0.6011177 0.1195698 2.944771e-33) : omega : 	0.7853982 : d : 	(0.9807853 0.1950903 6.123234e-17)
	I4 : dAve : 	(0.6011177 -0.1195698 2.944771e-33) : omega : 	0.7853982 : d : 	(0.9807853 -0.1950903 6.123234e-17)
	I5 : dAve : 	(0.509603 -0.3405058 2.944771e-33) : omega : 	0.7853982 : d : 	(0.8314696 -0.5555702 6.123234e-17)
	I6 : dAve : 	(0.3405058 -0.509603 2.944771e-33) : omega : 	0.7853982 : d : 	(0.5555702 -0.8314696 6.123234e-17)
	I7 : dAve : 	(0.1195698 -0.6011177 2.944771e-33) : omega : 	0.7853982 : d : 	(0.1950903 -0.9807853 6.123234e-17)
	I8 : dAve : 	(-0.1195698 -0.6011177 2.944771e-33) : omega : 	0.7853982 : d : 	(-0.1950903 -0.9807853 6.123234e-17)
	I9 : dAve : 	(-0.3405058 -0.509603 2.944771e-33) : omega : 	0.7853982 : d : 	(-0.5555702 -0.8314696 6.123234e-17)
	I10 : dAve : 	(-0.509603 -0.3405058 2.944771e-33) : omega : 	0.7853982 : d : 	(-0.8314696 -0.5555702 6.123234e-17)
	I11 : dAve : 	(-0.6011177 -0.1195698 2.944771e-33) : omega : 	0.7853982 : d : 	(-0.9807853 -0.1950903 6.123234e-17)
	I12 : dAve : 	(-0.6011177 0.1195698 2.944771e-33) : omega : 	0.7853982 : d : 	(-0.9807853 0.1950903 6.123234e-17)
	I13 : dAve : 	(-0.509603 0.3405058 2.944771e-33) : omega : 	0.7853982 : d : 	(-0.8314696 0.5555702 6.123234e-17)
	I14 : dAve : 	(-0.3405058 0.509603 2.944771e-33) : omega : 	0.7853982 : d : 	(-0.5555702 0.8314696 6.123234e-17)
	I15 : dAve : 	(-0.1195698 0.6011177 2.944771e-33) : omega : 	0.7853982 : d : 	(-0.1950903 0.9807853 6.123234e-17)
Total omega : 12.56637

Creating finite volume options from "system/fvOptions"

Selecting finite volume options type limitTemperature
    Source: limitT
    - selecting all cells
    - selected 12000 cell(s) with volume 0.473422
Selecting finite volume options type limitVelocity
    Source: limitU
    - selecting all cells
    - selected 12000 cell(s) with volume 0.473422

Starting time loop

surfaceFieldValue wallT:
    operation     = areaAverage


surfaceFieldValue wallTriser:
    operation     = areaAverage


Time = 3001

DILUPBiCGStab:  Solving for h, Initial residual = 0.0002571212, Final residual = 8.447693e-08, No Iterations 1
limitTemperature limitT Lower limited 0 (0%) of cells, with min limit 280
limitTemperature limitT Upper limited 0 (0%) of cells, with max limit 1200
limitTemperature limitT Unlimited Tmin 414.3105
limitTemperature limitT Unlimited Tmax 490.3812
Radiation solver iter: 0
Selecting boundary radiation Model: lookup
Selecting boundary radiation Model: lookup
Selecting boundary radiation Model: lookup
DILUPBiCGStab:  Solving for ILambda_0_0, Initial residual = 0.04910933, Final residual = 2.38722e-16, No Iterations 1
DILUPBiCGStab:  Solving for ILambda_1_0, Initial residual = 0.08014547, Final residual = 3.926571e-16, No Iterations 1
DILUPBiCGStab:  Solving for ILambda_2_0, Initial residual = 0.1159639, Final residual = 5.455544e-16, No Iterations 1
DILUPBiCGStab:  Solving for ILambda_3_0, Initial residual = 0.1650441, Final residual = 7.821527e-16, No Iterations 1
DILUPBiCGStab:  Solving for ILambda_4_0, Initial residual = 0.1678954, Final residual = 0.01335637, No Iterations 5
DILUPBiCGStab:  Solving for ILambda_5_0, Initial residual = 0.1186916, Final residual = 0.002455663, No Iterations 12
DILUPBiCGStab:  Solving for ILambda_6_0, Initial residual = 0.08227545, Final residual = 0.001525019, No Iterations 19
DILUPBiCGStab:  Solving for ILambda_7_0, Initial residual = 0.05874215, Final residual = 0.005535961, No Iterations 11
DILUPBiCGStab:  Solving for ILambda_8_0, Initial residual = 0.01244369, Final residual = 3.280374e-17, No Iterations 1
DILUPBiCGStab:  Solving for ILambda_9_0, Initial residual = 0.0229996, Final residual = 8.02027e-17, No Iterations 1
DILUPBiCGStab:  Solving for ILambda_10_0, Initial residual = 0.0355183, Final residual = 1.525696e-16, No Iterations 1
DILUPBiCGStab:  Solving for ILambda_11_0, Initial residual = 0.05079652, Final residual = 2.413473e-16, No Iterations 1
DILUPBiCGStab:  Solving for ILambda_12_0, Initial residual = 0.05938035, Final residual = 0.001985099, No Iterations 5
DILUPBiCGStab:  Solving for ILambda_13_0, Initial residual = 0.05397463, Final residual = 0.005054888, No Iterations 10
DILUPBiCGStab:  Solving for ILambda_14_0, Initial residual = 0.04846895, Final residual = 0.003043235, No Iterations 15
DILUPBiCGStab:  Solving for ILambda_15_0, Initial residual = 0.04039348, Final residual = 0.003484229, No Iterations 21
Radiation solver iter: 1
DILUPBiCGStab:  Solving for ILambda_0_0, Initial residual = 0.04179462, Final residual = 1.151078e-16, No Iterations 1
DILUPBiCGStab:  Solving for ILambda_1_0, Initial residual = 0.04531734, Final residual = 9.639704e-17, No Iterations 1
DILUPBiCGStab:  Solving for ILambda_2_0, Initial residual = 0.04582332, Final residual = 8.581084e-17, No Iterations 1
DILUPBiCGStab:  Solving for ILambda_3_0, Initial residual = 0.03394807, Final residual = 7.060739e-17, No Iterations 1
DILUPBiCGStab:  Solving for ILambda_4_0, Initial residual = 0.04558549, Final residual = 0.001623318, No Iterations 4
DILUPBiCGStab:  Solving for ILambda_5_0, Initial residual = 0.04953237, Final residual = 0.002943891, No Iterations 7
DILUPBiCGStab:  Solving for ILambda_6_0, Initial residual = 0.04761319, Final residual = 0.003524451, No Iterations 12
DILUPBiCGStab:  Solving for ILambda_7_0, Initial residual = 0.04875081, Final residual = 0.001800004, No Iterations 11
DILUPBiCGStab:  Solving for ILambda_8_0, Initial residual = 0.006437523, Final residual = 8.900313e-18, No Iterations 1
DILUPBiCGStab:  Solving for ILambda_9_0, Initial residual = 0.01002322, Final residual = 1.727526e-17, No Iterations 1
DILUPBiCGStab:  Solving for ILambda_10_0, Initial residual = 0.01261168, Final residual = 2.845149e-17, No Iterations 1
DILUPBiCGStab:  Solving for ILambda_11_0, Initial residual = 0.01517761, Final residual = 5.489533e-17, No Iterations 1
DILUPBiCGStab:  Solving for ILambda_12_0, Initial residual = 0.01926128, Final residual = 0.001138541, No Iterations 4
DILUPBiCGStab:  Solving for ILambda_13_0, Initial residual = 0.02164111, Final residual = 0.00205688, No Iterations 7
DILUPBiCGStab:  Solving for ILambda_14_0, Initial residual = 0.02108991, Final residual = 0.001624701, No Iterations 12
DILUPBiCGStab:  Solving for ILambda_15_0, Initial residual = 0.02076158, Final residual = 0.001654505, No Iterations 17
Radiation solver iter: 2
DILUPBiCGStab:  Solving for ILambda_0_0, Initial residual = 0.03516233, Final residual = 6.590178e-17, No Iterations 1
DILUPBiCGStab:  Solving for ILambda_1_0, Initial residual = 0.03667339, Final residual = 4.734661e-17, No Iterations 1
DILUPBiCGStab:  Solving for ILambda_2_0, Initial residual = 0.03342935, Final residual = 3.414373e-17, No Iterations 1
DILUPBiCGStab:  Solving for ILambda_3_0, Initial residual = 0.01867551, Final residual = 2.177219e-17, No Iterations 1
DILUPBiCGStab:  Solving for ILambda_4_0, Initial residual = 0.01968775, Final residual = 0.001668861, No Iterations 3
DILUPBiCGStab:  Solving for ILambda_5_0, Initial residual = 0.03898142, Final residual = 0.003561002, No Iterations 5
DILUPBiCGStab:  Solving for ILambda_6_0, Initial residual = 0.04116673, Final residual = 0.002085809, No Iterations 7
DILUPBiCGStab:  Solving for ILambda_7_0, Initial residual = 0.04117854, Final residual = 0.003215196, No Iterations 5
DILUPBiCGStab:  Solving for ILambda_8_0, Initial residual = 0.005513513, Final residual = 4.74304e-18, No Iterations 1
DILUPBiCGStab:  Solving for ILambda_9_0, Initial residual = 0.00841295, Final residual = 1.135246e-17, No Iterations 1
DILUPBiCGStab:  Solving for ILambda_10_0, Initial residual = 0.01086829, Final residual = 2.212363e-17, No Iterations 1
DILUPBiCGStab:  Solving for ILambda_11_0, Initial residual = 0.01186363, Final residual = 3.768566e-17, No Iterations 1
DILUPBiCGStab:  Solving for ILambda_12_0, Initial residual = 0.01444477, Final residual = 0.001246119, No Iterations 4
DILUPBiCGStab:  Solving for ILambda_13_0, Initial residual = 0.01805789, Final residual = 0.000648006, No Iterations 10
DILUPBiCGStab:  Solving for ILambda_14_0, Initial residual = 0.01824954, Final residual = 0.001334962, No Iterations 11
DILUPBiCGStab:  Solving for ILambda_15_0, Initial residual = 0.01740454, Final residual = 0.001729287, No Iterations 10
Radiation solver iter: 3
DILUPBiCGStab:  Solving for ILambda_0_0, Initial residual = 0.02954621, Final residual = 4.739556e-17, No Iterations 1
DILUPBiCGStab:  Solving for ILambda_1_0, Initial residual = 0.02749853, Final residual = 2.7476e-17, No Iterations 1
DILUPBiCGStab:  Solving for ILambda_2_0, Initial residual = 0.02254978, Final residual = 2.161135e-17, No Iterations 1
DILUPBiCGStab:  Solving for ILambda_3_0, Initial residual = 0.008663298, Final residual = 8.451448e-18, No Iterations 1
DILUPBiCGStab:  Solving for ILambda_4_0, Initial residual = 0.008596024, Final residual = 0.0004289447, No Iterations 2
DILUPBiCGStab:  Solving for ILambda_5_0, Initial residual = 0.02728469, Final residual = 0.001891624, No Iterations 4
DILUPBiCGStab:  Solving for ILambda_6_0, Initial residual = 0.03387782, Final residual = 0.001189507, No Iterations 7
DILUPBiCGStab:  Solving for ILambda_7_0, Initial residual = 0.03322363, Final residual = 0.001391838, No Iterations 6
DILUPBiCGStab:  Solving for ILambda_8_0, Initial residual = 0.004791954, Final residual = 3.819922e-18, No Iterations 1
DILUPBiCGStab:  Solving for ILambda_9_0, Initial residual = 0.007586569, Final residual = 9.745296e-18, No Iterations 1
DILUPBiCGStab:  Solving for ILambda_10_0, Initial residual = 0.009724891, Final residual = 1.723302e-17, No Iterations 1
DILUPBiCGStab:  Solving for ILambda_11_0, Initial residual = 0.008450151, Final residual = 2.328688e-17, No Iterations 1
DILUPBiCGStab:  Solving for ILambda_12_0, Initial residual = 0.009736935, Final residual = 0.0008470716, No Iterations 4
DILUPBiCGStab:  Solving for ILambda_13_0, Initial residual = 0.01499658, Final residual = 0.0007093613, No Iterations 8
DILUPBiCGStab:  Solving for ILambda_14_0, Initial residual = 0.01644403, Final residual = 9.508183e-05, No Iterations 14
DILUPBiCGStab:  Solving for ILambda_15_0, Initial residual = 0.01457717, Final residual = 0.001375987, No Iterations 8
Radiation solver iter: 4
DILUPBiCGStab:  Solving for ILambda_0_0, Initial residual = 0.02550818, Final residual = 3.720963e-17, No Iterations 1
DILUPBiCGStab:  Solving for ILambda_1_0, Initial residual = 0.0215558, Final residual = 1.670376e-17, No Iterations 1
DILUPBiCGStab:  Solving for ILambda_2_0, Initial residual = 0.01543712, Final residual = 1.070671e-17, No Iterations 1
DILUPBiCGStab:  Solving for ILambda_3_0, Initial residual = 0.003737512, Final residual = 3.723585e-18, No Iterations 1
DILUPBiCGStab:  Solving for ILambda_4_0, Initial residual = 0.003756874, Final residual = 0.0003186226, No Iterations 2
DILUPBiCGStab:  Solving for ILambda_5_0, Initial residual = 0.01884781, Final residual = 0.001590374, No Iterations 4
DILUPBiCGStab:  Solving for ILambda_6_0, Initial residual = 0.02811051, Final residual = 0.002235685, No Iterations 3
DILUPBiCGStab:  Solving for ILambda_7_0, Initial residual = 0.02738709, Final residual = 0.002674499, No Iterations 3
DILUPBiCGStab:  Solving for ILambda_8_0, Initial residual = 0.004268284, Final residual = 3.586097e-18, No Iterations 1
DILUPBiCGStab:  Solving for ILambda_9_0, Initial residual = 0.006675445, Final residual = 7.692826e-18, No Iterations 1
DILUPBiCGStab:  Solving for ILambda_10_0, Initial residual = 0.007884535, Final residual = 1.156585e-17, No Iterations 1
DILUPBiCGStab:  Solving for ILambda_11_0, Initial residual = 0.005317382, Final residual = 1.432941e-17, No Iterations 1
DILUPBiCGStab:  Solving for ILambda_12_0, Initial residual = 0.005990562, Final residual = 0.0003854509, No Iterations 4
DILUPBiCGStab:  Solving for ILambda_13_0, Initial residual = 0.01169545, Final residual = 0.001102366, No Iterations 7
DILUPBiCGStab:  Solving for ILambda_14_0, Initial residual = 0.01400312, Final residual = 0.001298965, No Iterations 9
DILUPBiCGStab:  Solving for ILambda_15_0, Initial residual = 0.01230586, Final residual = 0.001134194, No Iterations 7
Radiation solver iter: 5
DILUPBiCGStab:  Solving for ILambda_0_0, Initial residual = 0.02217762, Final residual = 2.991966e-17, No Iterations 1
DILUPBiCGStab:  Solving for ILambda_1_0, Initial residual = 0.01733126, Final residual = 1.308147e-17, No Iterations 1
DILUPBiCGStab:  Solving for ILambda_2_0, Initial residual = 0.01074984, Final residual = 7.535585e-18, No Iterations 1
DILUPBiCGStab:  Solving for ILambda_3_0, Initial residual = 0.001517605, Final residual = 1.107025e-18, No Iterations 1
DILUPBiCGStab:  Solving for ILambda_4_0, Initial residual = 0.001580897, Final residual = 0.0001194031, No Iterations 2
DILUPBiCGStab:  Solving for ILambda_5_0, Initial residual = 0.01305629, Final residual = 0.001137743, No Iterations 3
DILUPBiCGStab:  Solving for ILambda_6_0, Initial residual = 0.02367562, Final residual = 0.002074274, No Iterations 3
DILUPBiCGStab:  Solving for ILambda_7_0, Initial residual = 0.02319929, Final residual = 0.001957776, No Iterations 3
DILUPBiCGStab:  Solving for ILambda_8_0, Initial residual = 0.003779052, Final residual = 2.718278e-18, No Iterations 1
DILUPBiCGStab:  Solving for ILambda_9_0, Initial residual = 0.005816605, Final residual = 6.376064e-18, No Iterations 1
DILUPBiCGStab:  Solving for ILambda_10_0, Initial residual = 0.006174019, Final residual = 8.181308e-18, No Iterations 1
DILUPBiCGStab:  Solving for ILambda_11_0, Initial residual = 0.003725186, Final residual = 9.209213e-18, No Iterations 1
DILUPBiCGStab:  Solving for ILambda_12_0, Initial residual = 0.004216555, Final residual = 0.0001926663, No Iterations 4
DILUPBiCGStab:  Solving for ILambda_13_0, Initial residual = 0.009059956, Final residual = 0.0001490921, No Iterations 9
DILUPBiCGStab:  Solving for ILambda_14_0, Initial residual = 0.0122331, Final residual = 0.0009821012, No Iterations 7
DILUPBiCGStab:  Solving for ILambda_15_0, Initial residual = 0.0106045, Final residual = 0.001011194, No Iterations 6
Radiation solver iter: 6
DILUPBiCGStab:  Solving for ILambda_0_0, Initial residual = 0.01937351, Final residual = 2.200387e-17, No Iterations 1
DILUPBiCGStab:  Solving for ILambda_1_0, Initial residual = 0.01378831, Final residual = 9.467065e-18, No Iterations 1
DILUPBiCGStab:  Solving for ILambda_2_0, Initial residual = 0.007345405, Final residual = 4.054581e-18, No Iterations 1
DILUPBiCGStab:  Solving for ILambda_3_0, Initial residual = 0.0006035527, Final residual = 5.112364e-19, No Iterations 1
DILUPBiCGStab:  Solving for ILambda_4_0, Initial residual = 0.0006372759, Final residual = 5.679178e-05, No Iterations 2
DILUPBiCGStab:  Solving for ILambda_5_0, Initial residual = 0.008703742, Final residual = 0.0008160075, No Iterations 3
DILUPBiCGStab:  Solving for ILambda_6_0, Initial residual = 0.01940925, Final residual = 0.001523358, No Iterations 3
DILUPBiCGStab:  Solving for ILambda_7_0, Initial residual = 0.01966008, Final residual = 0.001150046, No Iterations 4
DILUPBiCGStab:  Solving for ILambda_8_0, Initial residual = 0.003313897, Final residual = 2.211908e-18, No Iterations 1
DILUPBiCGStab:  Solving for ILambda_9_0, Initial residual = 0.005071975, Final residual = 4.674563e-18, No Iterations 1
DILUPBiCGStab:  Solving for ILambda_10_0, Initial residual = 0.004822313, Final residual = 5.582553e-18, No Iterations 1
DILUPBiCGStab:  Solving for ILambda_11_0, Initial residual = 0.00303356, Final residual = 7.834634e-18, No Iterations 1
DILUPBiCGStab:  Solving for ILambda_12_0, Initial residual = 0.003525814, Final residual = 0.0001545795, No Iterations 4
DILUPBiCGStab:  Solving for ILambda_13_0, Initial residual = 0.006710649, Final residual = 0.0006394446, No Iterations 6
DILUPBiCGStab:  Solving for ILambda_14_0, Initial residual = 0.01033245, Final residual = 0.0005723977, No Iterations 7
DILUPBiCGStab:  Solving for ILambda_15_0, Initial residual = 0.009137628, Final residual = 0.000468521, No Iterations 7
Radiation solver iter: 7
DILUPBiCGStab:  Solving for ILambda_0_0, Initial residual = 0.01681342, Final residual = 2.278817e-17, No Iterations 1
DILUPBiCGStab:  Solving for ILambda_1_0, Initial residual = 0.01086474, Final residual = 6.150571e-18, No Iterations 1
DILUPBiCGStab:  Solving for ILambda_2_0, Initial residual = 0.004825003, Final residual = 2.386174e-18, No Iterations 1
DILUPBiCGStab:  Solving for ILambda_5_0, Initial residual = 0.005465377, Final residual = 0.0005376098, No Iterations 3
DILUPBiCGStab:  Solving for ILambda_6_0, Initial residual = 0.01547354, Final residual = 0.00141262, No Iterations 2
DILUPBiCGStab:  Solving for ILambda_7_0, Initial residual = 0.01655568, Final residual = 0.0007431616, No Iterations 4
DILUPBiCGStab:  Solving for ILambda_8_0, Initial residual = 0.002859661, Final residual = 2.043426e-18, No Iterations 1
DILUPBiCGStab:  Solving for ILambda_9_0, Initial residual = 0.004409648, Final residual = 3.735738e-18, No Iterations 1
DILUPBiCGStab:  Solving for ILambda_10_0, Initial residual = 0.003804679, Final residual = 4.274545e-18, No Iterations 1
DILUPBiCGStab:  Solving for ILambda_11_0, Initial residual = 0.002492565, Final residual = 6.151958e-18, No Iterations 1
DILUPBiCGStab:  Solving for ILambda_12_0, Initial residual = 0.00292798, Final residual = 0.0001091408, No Iterations 4
DILUPBiCGStab:  Solving for ILambda_13_0, Initial residual = 0.005466811, Final residual = 0.0005127889, No Iterations 5
DILUPBiCGStab:  Solving for ILambda_14_0, Initial residual = 0.008679174, Final residual = 0.0002796194, No Iterations 8
DILUPBiCGStab:  Solving for ILambda_15_0, Initial residual = 0.007653635, Final residual = 0.0005534221, No Iterations 5
Radiation solver iter: 8
DILUPBiCGStab:  Solving for ILambda_0_0, Initial residual = 0.01449201, Final residual = 1.49485e-17, No Iterations 1
DILUPBiCGStab:  Solving for ILambda_1_0, Initial residual = 0.008513069, Final residual = 4.348477e-18, No Iterations 1
DILUPBiCGStab:  Solving for ILambda_2_0, Initial residual = 0.003045416, Final residual = 1.586422e-18, No Iterations 1
DILUPBiCGStab:  Solving for ILambda_5_0, Initial residual = 0.00328749, Final residual = 0.0001996212, No Iterations 3
DILUPBiCGStab:  Solving for ILambda_6_0, Initial residual = 0.01222154, Final residual = 0.0009464796, No Iterations 2
DILUPBiCGStab:  Solving for ILambda_7_0, Initial residual = 0.01397725, Final residual = 0.001068297, No Iterations 3
DILUPBiCGStab:  Solving for ILambda_8_0, Initial residual = 0.002453644, Final residual = 1.638101e-18, No Iterations 1
DILUPBiCGStab:  Solving for ILambda_9_0, Initial residual = 0.003821857, Final residual = 2.832696e-18, No Iterations 1
DILUPBiCGStab:  Solving for ILambda_10_0, Initial residual = 0.003085666, Final residual = 3.426745e-18, No Iterations 1
DILUPBiCGStab:  Solving for ILambda_11_0, Initial residual = 0.00200519, Final residual = 4.638167e-18, No Iterations 1
DILUPBiCGStab:  Solving for ILambda_12_0, Initial residual = 0.002346426, Final residual = 8.642007e-05, No Iterations 4
DILUPBiCGStab:  Solving for ILambda_13_0, Initial residual = 0.00460144, Final residual = 0.0003997626, No Iterations 6
DILUPBiCGStab:  Solving for ILambda_14_0, Initial residual = 0.007337041, Final residual = 0.0006758176, No Iterations 5
DILUPBiCGStab:  Solving for ILambda_15_0, Initial residual = 0.006523917, Final residual = 0.0006201519, No Iterations 6
Radiation solver iter: 9
DILUPBiCGStab:  Solving for ILambda_0_0, Initial residual = 0.01236918, Final residual = 1.278551e-17, No Iterations 1
DILUPBiCGStab:  Solving for ILambda_1_0, Initial residual = 0.006634414, Final residual = 3.098727e-18, No Iterations 1
DILUPBiCGStab:  Solving for ILambda_2_0, Initial residual = 0.00185171, Final residual = 7.484677e-19, No Iterations 1
DILUPBiCGStab:  Solving for ILambda_5_0, Initial residual = 0.001943436, Final residual = 0.0001659166, No Iterations 2
DILUPBiCGStab:  Solving for ILambda_6_0, Initial residual = 0.009470866, Final residual = 0.000582348, No Iterations 2
DILUPBiCGStab:  Solving for ILambda_7_0, Initial residual = 0.01183337, Final residual = 0.0004579526, No Iterations 4
DILUPBiCGStab:  Solving for ILambda_8_0, Initial residual = 0.002083944, Final residual = 1.174818e-18, No Iterations 1
DILUPBiCGStab:  Solving for ILambda_9_0, Initial residual = 0.003264771, Final residual = 2.33991e-18, No Iterations 1
DILUPBiCGStab:  Solving for ILambda_10_0, Initial residual = 0.00253855, Final residual = 3.05873e-18, No Iterations 1
DILUPBiCGStab:  Solving for ILambda_11_0, Initial residual = 0.001567187, Final residual = 3.730863e-18, No Iterations 1
DILUPBiCGStab:  Solving for ILambda_12_0, Initial residual = 0.001835285, Final residual = 7.179257e-05, No Iterations 4
DILUPBiCGStab:  Solving for ILambda_13_0, Initial residual = 0.003871642, Final residual = 0.0001197785, No Iterations 8
DILUPBiCGStab:  Solving for ILambda_14_0, Initial residual = 0.006295673, Final residual = 0.0006200982, No Iterations 4
DILUPBiCGStab:  Solving for ILambda_15_0, Initial residual = 0.005623608, Final residual = 0.0005269253, No Iterations 5
Radiation solver iter: 10
DILUPBiCGStab:  Solving for ILambda_0_0, Initial residual = 0.01044079, Final residual = 9.433132e-18, No Iterations 1
DILUPBiCGStab:  Solving for ILambda_1_0, Initial residual = 0.005152792, Final residual = 2.653879e-18, No Iterations 1
DILUPBiCGStab:  Solving for ILambda_2_0, Initial residual = 0.001091619, Final residual = 4.9974e-19, No Iterations 1
DILUPBiCGStab:  Solving for ILambda_5_0, Initial residual = 0.001121371, Final residual = 5.839181e-05, No Iterations 4
DILUPBiCGStab:  Solving for ILambda_6_0, Initial residual = 0.00719679, Final residual = 0.0006889358, No Iterations 2
DILUPBiCGStab:  Solving for ILambda_7_0, Initial residual = 0.009951825, Final residual = 0.0008839303, No Iterations 2
DILUPBiCGStab:  Solving for ILambda_8_0, Initial residual = 0.001756787, Final residual = 1.054827e-18, No Iterations 1
DILUPBiCGStab:  Solving for ILambda_9_0, Initial residual = 0.002736464, Final residual = 2.07343e-18, No Iterations 1
DILUPBiCGStab:  Solving for ILambda_10_0, Initial residual = 0.002064919, Final residual = 2.493004e-18, No Iterations 1
DILUPBiCGStab:  Solving for ILambda_11_0, Initial residual = 0.001195799, Final residual = 2.822271e-18, No Iterations 1
DILUPBiCGStab:  Solving for ILambda_12_0, Initial residual = 0.001408272, Final residual = 5.085704e-05, No Iterations 4
DILUPBiCGStab:  Solving for ILambda_13_0, Initial residual = 0.003144285, Final residual = 0.0003046652, No Iterations 6
DILUPBiCGStab:  Solving for ILambda_14_0, Initial residual = 0.005372135, Final residual = 0.0003671077, No Iterations 5
DILUPBiCGStab:  Solving for ILambda_15_0, Initial residual = 0.004808079, Final residual = 0.0001054969, No Iterations 7
Radiation solver iter: 11
DILUPBiCGStab:  Solving for ILambda_0_0, Initial residual = 0.008707517, Final residual = 7.344406e-18, No Iterations 1
DILUPBiCGStab:  Solving for ILambda_1_0, Initial residual = 0.003989484, Final residual = 1.913513e-18, No Iterations 1
DILUPBiCGStab:  Solving for ILambda_2_0, Initial residual = 0.000622917, Final residual = 2.920575e-19, No Iterations 1
DILUPBiCGStab:  Solving for ILambda_5_0, Initial residual = 0.0006457845, Final residual = 7.838999e-05, No Iterations 2
DILUPBiCGStab:  Solving for ILambda_6_0, Initial residual = 0.005442405, Final residual = 0.0004941735, No Iterations 2
DILUPBiCGStab:  Solving for ILambda_7_0, Initial residual = 0.008434365, Final residual = 0.0008269851, No Iterations 2
DILUPBiCGStab:  Solving for ILambda_8_0, Initial residual = 0.001471948, Final residual = 9.202558e-19, No Iterations 1
DILUPBiCGStab:  Solving for ILambda_9_0, Initial residual = 0.002265507, Final residual = 1.611219e-18, No Iterations 1
DILUPBiCGStab:  Solving for ILambda_10_0, Initial residual = 0.001654868, Final residual = 1.91302e-18, No Iterations 1
DILUPBiCGStab:  Solving for ILambda_11_0, Initial residual = 0.0009086278, Final residual = 2.245689e-18, No Iterations 1
DILUPBiCGStab:  Solving for ILambda_12_0, Initial residual = 0.00107409, Final residual = 3.646405e-05, No Iterations 4
DILUPBiCGStab:  Solving for ILambda_13_0, Initial residual = 0.002576962, Final residual = 0.0002193639, No Iterations 6
DILUPBiCGStab:  Solving for ILambda_14_0, Initial residual = 0.004506851, Final residual = 0.0003799436, No Iterations 5
DILUPBiCGStab:  Solving for ILambda_15_0, Initial residual = 0.004046284, Final residual = 0.0003721221, No Iterations 3
Radiation solver iter: 12
DILUPBiCGStab:  Solving for ILambda_0_0, Initial residual = 0.00719699, Final residual = 6.268685e-18, No Iterations 1
DILUPBiCGStab:  Solving for ILambda_1_0, Initial residual = 0.003064241, Final residual = 1.2669e-18, No Iterations 1
DILUPBiCGStab:  Solving for ILambda_6_0, Initial residual = 0.004037768, Final residual = 0.0003285148, No Iterations 2
DILUPBiCGStab:  Solving for ILambda_7_0, Initial residual = 0.007116669, Final residual = 0.0005744553, No Iterations 3
DILUPBiCGStab:  Solving for ILambda_8_0, Initial residual = 0.001226468, Final residual = 6.635256e-19, No Iterations 1
DILUPBiCGStab:  Solving for ILambda_9_0, Initial residual = 0.001850117, Final residual = 1.294894e-18, No Iterations 1
DILUPBiCGStab:  Solving for ILambda_10_0, Initial residual = 0.001297552, Final residual = 1.517695e-18, No Iterations 1
DILUPBiCGStab:  Solving for ILambda_12_0, Initial residual = 0.000809872, Final residual = 2.664313e-05, No Iterations 4
DILUPBiCGStab:  Solving for ILambda_13_0, Initial residual = 0.00202612, Final residual = 0.000189683, No Iterations 6
DILUPBiCGStab:  Solving for ILambda_14_0, Initial residual = 0.003764797, Final residual = 0.000183367, No Iterations 6
DILUPBiCGStab:  Solving for ILambda_15_0, Initial residual = 0.003485721, Final residual = 0.0002553262, No Iterations 4
Radiation solver iter: 13
DILUPBiCGStab:  Solving for ILambda_0_0, Initial residual = 0.005905596, Final residual = 5.190589e-18, No Iterations 1
DILUPBiCGStab:  Solving for ILambda_1_0, Initial residual = 0.0023301, Final residual = 1.047866e-18, No Iterations 1
DILUPBiCGStab:  Solving for ILambda_6_0, Initial residual = 0.00293522, Final residual = 0.0002159788, No Iterations 2
DILUPBiCGStab:  Solving for ILambda_7_0, Initial residual = 0.00597433, Final residual = 0.0005769173, No Iterations 2
DILUPBiCGStab:  Solving for ILambda_8_0, Initial residual = 0.001026742, Final residual = 6.215092e-19, No Iterations 1
DILUPBiCGStab:  Solving for ILambda_9_0, Initial residual = 0.001502858, Final residual = 1.105331e-18, No Iterations 1
DILUPBiCGStab:  Solving for ILambda_10_0, Initial residual = 0.001012137, Final residual = 1.233536e-18, No Iterations 1
DILUPBiCGStab:  Solving for ILambda_13_0, Initial residual = 0.001564354, Final residual = 0.0001531343, No Iterations 6
DILUPBiCGStab:  Solving for ILambda_14_0, Initial residual = 0.003097418, Final residual = 0.0002726718, No Iterations 4
DILUPBiCGStab:  Solving for ILambda_15_0, Initial residual = 0.00295576, Final residual = 0.0001152032, No Iterations 5
Radiation solver iter: 14
DILUPBiCGStab:  Solving for ILambda_0_0, Initial residual = 0.004823689, Final residual = 3.664637e-18, No Iterations 1
DILUPBiCGStab:  Solving for ILambda_1_0, Initial residual = 0.001741175, Final residual = 6.032832e-19, No Iterations 1
DILUPBiCGStab:  Solving for ILambda_6_0, Initial residual = 0.002089545, Final residual = 0.000136064, No Iterations 2
DILUPBiCGStab:  Solving for ILambda_7_0, Initial residual = 0.005010672, Final residual = 0.0004895195, No Iterations 2
DILUPBiCGStab:  Solving for ILambda_8_0, Initial residual = 0.0008623526, Final residual = 6.112098e-19, No Iterations 1
DILUPBiCGStab:  Solving for ILambda_9_0, Initial residual = 0.001215833, Final residual = 8.903312e-19, No Iterations 1
DILUPBiCGStab:  Solving for ILambda_10_0, Initial residual = 0.0007839813, Final residual = 9.492182e-19, No Iterations 1
DILUPBiCGStab:  Solving for ILambda_13_0, Initial residual = 0.001211558, Final residual = 0.0001132067, No Iterations 7
DILUPBiCGStab:  Solving for ILambda_14_0, Initial residual = 0.002581411, Final residual = 0.0002374538, No Iterations 6
DILUPBiCGStab:  Solving for ILambda_15_0, Initial residual = 0.002487776, Final residual = 0.0001566183, No Iterations 4
GAMG:  Solving for p_rgh, Initial residual = 0.04045629, Final residual = 7.661358e-05, No Iterations 2
limitVelocity limitU Limited 0 (0%) of cells, with max limit 5
time step continuity errors : sum local = 0.0003063951, global = 4.415674e-18, cumulative = 1.697761e-15
rho min/max : 0.6094037 0.9661785
DILUPBiCGStab:  Solving for omega, Initial residual = 0.0001363655, Final residual = 5.596188e-06, No Iterations 1
DILUPBiCGStab:  Solving for k, Initial residual = 0.0006470544, Final residual = 3.145572e-05, No Iterations 1
ExecutionTime = 0.58 s  ClockTime = 1 s

Time = 3002

DILUPBiCGStab:  Solving for h, Initial residual = 0.0002554099, Final residual = 6.947307e-08, No Iterations 1
limitTemperature limitT Lower limited 0 (0%) of cells, with min limit 280
limitTemperature limitT Upper limited 0 (0%) of cells, with max limit 1200
limitTemperature limitT Unlimited Tmin 414.3103
limitTemperature limitT Unlimited Tmax 490.0956
GAMG:  Solving for p_rgh, Initial residual = 0.03132731, Final residual = 5.92802e-05, No Iterations 2
limitVelocity limitU Limited 0 (0%) of cells, with max limit 5
time step continuity errors : sum local = 0.00024666, global = 2.062199e-17, cumulative = 1.718383e-15
rho min/max : 0.6225449 0.9670186
DILUPBiCGStab:  Solving for omega, Initial residual = 0.0001569557, Final residual = 6.864972e-06, No Iterations 1
DILUPBiCGStab:  Solving for k, Initial residual = 0.0006507302, Final residual = 3.044626e-05, No Iterations 1
ExecutionTime = 0.6 s  ClockTime = 1 s

Time = 3003

DILUPBiCGStab:  Solving for h, Initial residual = 0.0002577108, Final residual = 7.477535e-08, No Iterations 1
limitTemperature limitT Lower limited 0 (0%) of cells, with min limit 280
limitTemperature limitT Upper limited 0 (0%) of cells, with max limit 1200
limitTemperature limitT Unlimited Tmin 414.3098
limitTemperature limitT Unlimited Tmax 490.1206
Radiation solver iter: 0
DILUPBiCGStab:  Solving for ILambda_0_0, Initial residual = 0.06279118, Final residual = 3.927336e-16, No Iterations 1
DILUPBiCGStab:  Solving for ILambda_1_0, Initial residual = 0.1305021, Final residual = 6.959678e-16, No Iterations 1
DILUPBiCGStab:  Solving for ILambda_2_0, Initial residual = 0.212982, Final residual = 9.815466e-16, No Iterations 1
DILUPBiCGStab:  Solving for ILambda_3_0, Initial residual = 0.3294331, Final residual = 1.597661e-15, No Iterations 1
DILUPBiCGStab:  Solving for ILambda_4_0, Initial residual = 0.3487252, Final residual = 0.007188126, No Iterations 5
DILUPBiCGStab:  Solving for ILambda_5_0, Initial residual = 0.2430544, Final residual = 0.01876145, No Iterations 11
DILUPBiCGStab:  Solving for ILambda_6_0, Initial residual = 0.156083, Final residual = 0.004986817, No Iterations 20
DILUPBiCGStab:  Solving for ILambda_7_0, Initial residual = 0.07745507, Final residual = 0.0009490574, No Iterations 31
DILUPBiCGStab:  Solving for ILambda_8_0, Initial residual = 0.01706863, Final residual = 5.844193e-17, No Iterations 1
DILUPBiCGStab:  Solving for ILambda_9_0, Initial residual = 0.03233183, Final residual = 1.259149e-16, No Iterations 1
DILUPBiCGStab:  Solving for ILambda_10_0, Initial residual = 0.05637704, Final residual = 2.374248e-16, No Iterations 1
DILUPBiCGStab:  Solving for ILambda_11_0, Initial residual = 0.08657868, Final residual = 3.704433e-16, No Iterations 1
DILUPBiCGStab:  Solving for ILambda_12_0, Initial residual = 0.1026876, Final residual = 0.003804936, No Iterations 5
DILUPBiCGStab:  Solving for ILambda_13_0, Initial residual = 0.08893332, Final residual = 0.0002526709, No Iterations 11
DILUPBiCGStab:  Solving for ILambda_14_0, Initial residual = 0.07371388, Final residual = 0.0002459679, No Iterations 18
DILUPBiCGStab:  Solving for ILambda_15_0, Initial residual = 0.05463945, Final residual = 0.004990769, No Iterations 25
Radiation solver iter: 1
DILUPBiCGStab:  Solving for ILambda_0_0, Initial residual = 0.05636354, Final residual = 1.618437e-16, No Iterations 1
DILUPBiCGStab:  Solving for ILambda_1_0, Initial residual = 0.07626004, Final residual = 1.505246e-16, No Iterations 1
DILUPBiCGStab:  Solving for ILambda_2_0, Initial residual = 0.09339616, Final residual = 1.741957e-16, No Iterations 1
DILUPBiCGStab:  Solving for ILambda_3_0, Initial residual = 0.09112788, Final residual = 1.809674e-16, No Iterations 1
DILUPBiCGStab:  Solving for ILambda_4_0, Initial residual = 0.1245746, Final residual = 0.004606386, No Iterations 4
DILUPBiCGStab:  Solving for ILambda_5_0, Initial residual = 0.1418192, Final residual = 0.003459327, No Iterations 9
DILUPBiCGStab:  Solving for ILambda_6_0, Initial residual = 0.1034287, Final residual = 0.008403118, No Iterations 9
DILUPBiCGStab:  Solving for ILambda_7_0, Initial residual = 0.06329097, Final residual = 0.006267945, No Iterations 10
DILUPBiCGStab:  Solving for ILambda_8_0, Initial residual = 0.006897087, Final residual = 1.265858e-17, No Iterations 1
DILUPBiCGStab:  Solving for ILambda_9_0, Initial residual = 0.01164536, Final residual = 2.284594e-17, No Iterations 1
DILUPBiCGStab:  Solving for ILambda_10_0, Initial residual = 0.01732895, Final residual = 4.05086e-17, No Iterations 1
DILUPBiCGStab:  Solving for ILambda_11_0, Initial residual = 0.02448495, Final residual = 8.475085e-17, No Iterations 1
DILUPBiCGStab:  Solving for ILambda_12_0, Initial residual = 0.03288505, Final residual = 0.00293276, No Iterations 3
DILUPBiCGStab:  Solving for ILambda_13_0, Initial residual = 0.02948069, Final residual = 0.001902695, No Iterations 8
DILUPBiCGStab:  Solving for ILambda_14_0, Initial residual = 0.026271, Final residual = 0.002364513, No Iterations 14
DILUPBiCGStab:  Solving for ILambda_15_0, Initial residual = 0.02445842, Final residual = 0.0006024497, No Iterations 21
Radiation solver iter: 2
DILUPBiCGStab:  Solving for ILambda_0_0, Initial residual = 0.04587807, Final residual = 8.494546e-17, No Iterations 1
DILUPBiCGStab:  Solving for ILambda_1_0, Initial residual = 0.05940052, Final residual = 7.211726e-17, No Iterations 1
DILUPBiCGStab:  Solving for ILambda_2_0, Initial residual = 0.0651583, Final residual = 6.442961e-17, No Iterations 1
DILUPBiCGStab:  Solving for ILambda_3_0, Initial residual = 0.04904787, Final residual = 5.473259e-17, No Iterations 1
DILUPBiCGStab:  Solving for ILambda_4_0, Initial residual = 0.06477463, Final residual = 0.006017202, No Iterations 2
DILUPBiCGStab:  Solving for ILambda_5_0, Initial residual = 0.1032609, Final residual = 0.005074416, No Iterations 6
DILUPBiCGStab:  Solving for ILambda_6_0, Initial residual = 0.0946482, Final residual = 0.005409711, No Iterations 7
DILUPBiCGStab:  Solving for ILambda_7_0, Initial residual = 0.05947111, Final residual = 0.005304052, No Iterations 6
DILUPBiCGStab:  Solving for ILambda_8_0, Initial residual = 0.005764006, Final residual = 7.578266e-18, No Iterations 1
DILUPBiCGStab:  Solving for ILambda_9_0, Initial residual = 0.01016542, Final residual = 1.667243e-17, No Iterations 1
DILUPBiCGStab:  Solving for ILambda_10_0, Initial residual = 0.01533969, Final residual = 3.118848e-17, No Iterations 1
DILUPBiCGStab:  Solving for ILambda_11_0, Initial residual = 0.01963527, Final residual = 6.02925e-17, No Iterations 1
DILUPBiCGStab:  Solving for ILambda_12_0, Initial residual = 0.02539767, Final residual = 0.001691055, No Iterations 4
DILUPBiCGStab:  Solving for ILambda_13_0, Initial residual = 0.02771874, Final residual = 0.002260557, No Iterations 8
DILUPBiCGStab:  Solving for ILambda_14_0, Initial residual = 0.02471978, Final residual = 0.0008067449, No Iterations 15
DILUPBiCGStab:  Solving for ILambda_15_0, Initial residual = 0.01894229, Final residual = 0.001782782, No Iterations 14
Radiation solver iter: 3
DILUPBiCGStab:  Solving for ILambda_0_0, Initial residual = 0.03721697, Final residual = 5.999854e-17, No Iterations 1
DILUPBiCGStab:  Solving for ILambda_1_0, Initial residual = 0.04311519, Final residual = 4.551804e-17, No Iterations 1
DILUPBiCGStab:  Solving for ILambda_2_0, Initial residual = 0.04301398, Final residual = 3.575238e-17, No Iterations 1
DILUPBiCGStab:  Solving for ILambda_3_0, Initial residual = 0.02178985, Final residual = 1.848788e-17, No Iterations 1
DILUPBiCGStab:  Solving for ILambda_4_0, Initial residual = 0.02835597, Final residual = 0.002146034, No Iterations 2
DILUPBiCGStab:  Solving for ILambda_5_0, Initial residual = 0.07194194, Final residual = 0.005490358, No Iterations 4
DILUPBiCGStab:  Solving for ILambda_6_0, Initial residual = 0.07698291, Final residual = 0.005260808, No Iterations 5
DILUPBiCGStab:  Solving for ILambda_7_0, Initial residual = 0.04974651, Final residual = 0.003859452, No Iterations 6
DILUPBiCGStab:  Solving for ILambda_8_0, Initial residual = 0.005185754, Final residual = 5.417099e-18, No Iterations 1
DILUPBiCGStab:  Solving for ILambda_9_0, Initial residual = 0.009589048, Final residual = 1.490476e-17, No Iterations 1
DILUPBiCGStab:  Solving for ILambda_10_0, Initial residual = 0.01345012, Final residual = 2.448686e-17, No Iterations 1
DILUPBiCGStab:  Solving for ILambda_11_0, Initial residual = 0.01379637, Final residual = 3.956782e-17, No Iterations 1
DILUPBiCGStab:  Solving for ILambda_12_0, Initial residual = 0.01630695, Final residual = 0.001207869, No Iterations 4
DILUPBiCGStab:  Solving for ILambda_13_0, Initial residual = 0.02389872, Final residual = 0.002310614, No Iterations 8
DILUPBiCGStab:  Solving for ILambda_14_0, Initial residual = 0.02177309, Final residual = 0.001090213, No Iterations 11
DILUPBiCGStab:  Solving for ILambda_15_0, Initial residual = 0.01635224, Final residual = 0.001609697, No Iterations 8
Radiation solver iter: 4
DILUPBiCGStab:  Solving for ILambda_0_0, Initial residual = 0.03173976, Final residual = 4.758068e-17, No Iterations 1
DILUPBiCGStab:  Solving for ILambda_1_0, Initial residual = 0.03295461, Final residual = 2.584868e-17, No Iterations 1
DILUPBiCGStab:  Solving for ILambda_2_0, Initial residual = 0.02914648, Final residual = 2.095101e-17, No Iterations 1
DILUPBiCGStab:  Solving for ILambda_3_0, Initial residual = 0.009127553, Final residual = 6.74884e-18, No Iterations 1
DILUPBiCGStab:  Solving for ILambda_4_0, Initial residual = 0.0106745, Final residual = 0.0009573616, No Iterations 2
DILUPBiCGStab:  Solving for ILambda_5_0, Initial residual = 0.04880046, Final residual = 0.003653265, No Iterations 3
DILUPBiCGStab:  Solving for ILambda_6_0, Initial residual = 0.06359688, Final residual = 0.005499913, No Iterations 3
DILUPBiCGStab:  Solving for ILambda_7_0, Initial residual = 0.04247484, Final residual = 0.003626326, No Iterations 5
DILUPBiCGStab:  Solving for ILambda_8_0, Initial residual = 0.004773149, Final residual = 5.034607e-18, No Iterations 1
DILUPBiCGStab:  Solving for ILambda_9_0, Initial residual = 0.008836854, Final residual = 1.055053e-17, No Iterations 1
DILUPBiCGStab:  Solving for ILambda_10_0, Initial residual = 0.01094846, Final residual = 1.656467e-17, No Iterations 1
DILUPBiCGStab:  Solving for ILambda_11_0, Initial residual = 0.008939633, Final residual = 2.286323e-17, No Iterations 1
DILUPBiCGStab:  Solving for ILambda_12_0, Initial residual = 0.01041062, Final residual = 0.0007442151, No Iterations 4
DILUPBiCGStab:  Solving for ILambda_13_0, Initial residual = 0.01875193, Final residual = 0.00182416, No Iterations 7
DILUPBiCGStab:  Solving for ILambda_14_0, Initial residual = 0.01936254, Final residual = 0.001896833, No Iterations 7
DILUPBiCGStab:  Solving for ILambda_15_0, Initial residual = 0.01418476, Final residual = 0.001313264, No Iterations 7
Radiation solver iter: 5
DILUPBiCGStab:  Solving for ILambda_0_0, Initial residual = 0.02752847, Final residual = 3.455579e-17, No Iterations 1
DILUPBiCGStab:  Solving for ILambda_1_0, Initial residual = 0.02608126, Final residual = 1.797618e-17, No Iterations 1
DILUPBiCGStab:  Solving for ILambda_2_0, Initial residual = 0.02029785, Final residual = 1.375892e-17, No Iterations 1
DILUPBiCGStab:  Solving for ILambda_3_0, Initial residual = 0.003644723, Final residual = 2.466192e-18, No Iterations 1
DILUPBiCGStab:  Solving for ILambda_4_0, Initial residual = 0.004309667, Final residual = 0.0003191436, No Iterations 2
DILUPBiCGStab:  Solving for ILambda_5_0, Initial residual = 0.03263171, Final residual = 0.002232273, No Iterations 3
DILUPBiCGStab:  Solving for ILambda_6_0, Initial residual = 0.05216261, Final residual = 0.002569874, No Iterations 4
DILUPBiCGStab:  Solving for ILambda_7_0, Initial residual = 0.03688284, Final residual = 0.002288681, No Iterations 5
DILUPBiCGStab:  Solving for ILambda_8_0, Initial residual = 0.004382439, Final residual = 3.865095e-18, No Iterations 1
DILUPBiCGStab:  Solving for ILambda_9_0, Initial residual = 0.007935597, Final residual = 8.73843e-18, No Iterations 1
DILUPBiCGStab:  Solving for ILambda_10_0, Initial residual = 0.008649406, Final residual = 1.137182e-17, No Iterations 1
DILUPBiCGStab:  Solving for ILambda_11_0, Initial residual = 0.006306257, Final residual = 1.631519e-17, No Iterations 1
DILUPBiCGStab:  Solving for ILambda_12_0, Initial residual = 0.007287434, Final residual = 0.0004684582, No Iterations 4
DILUPBiCGStab:  Solving for ILambda_13_0, Initial residual = 0.01388867, Final residual = 0.001364862, No Iterations 7
DILUPBiCGStab:  Solving for ILambda_14_0, Initial residual = 0.01641792, Final residual = 0.00075987, No Iterations 9
DILUPBiCGStab:  Solving for ILambda_15_0, Initial residual = 0.01226382, Final residual = 0.000651592, No Iterations 8
Radiation solver iter: 6
DILUPBiCGStab:  Solving for ILambda_0_0, Initial residual = 0.02404535, Final residual = 3.006309e-17, No Iterations 1
DILUPBiCGStab:  Solving for ILambda_1_0, Initial residual = 0.02057659, Final residual = 1.368801e-17, No Iterations 1
DILUPBiCGStab:  Solving for ILambda_2_0, Initial residual = 0.01385901, Final residual = 8.486906e-18, No Iterations 1
DILUPBiCGStab:  Solving for ILambda_3_0, Initial residual = 0.001443182, Final residual = 1.104619e-18, No Iterations 1
DILUPBiCGStab:  Solving for ILambda_4_0, Initial residual = 0.001686782, Final residual = 0.0001550243, No Iterations 2
DILUPBiCGStab:  Solving for ILambda_5_0, Initial residual = 0.02116162, Final residual = 0.001730294, No Iterations 3
DILUPBiCGStab:  Solving for ILambda_6_0, Initial residual = 0.04168017, Final residual = 0.003950519, No Iterations 2
DILUPBiCGStab:  Solving for ILambda_7_0, Initial residual = 0.03166929, Final residual = 0.002200777, No Iterations 4
DILUPBiCGStab:  Solving for ILambda_8_0, Initial residual = 0.003955149, Final residual = 3.424861e-18, No Iterations 1
DILUPBiCGStab:  Solving for ILambda_9_0, Initial residual = 0.006993581, Final residual = 6.915395e-18, No Iterations 1
DILUPBiCGStab:  Solving for ILambda_10_0, Initial residual = 0.006780217, Final residual = 9.088449e-18, No Iterations 1
DILUPBiCGStab:  Solving for ILambda_11_0, Initial residual = 0.00495549, Final residual = 1.215778e-17, No Iterations 1
DILUPBiCGStab:  Solving for ILambda_12_0, Initial residual = 0.005709663, Final residual = 2.904392e-05, No Iterations 5
DILUPBiCGStab:  Solving for ILambda_13_0, Initial residual = 0.01022445, Final residual = 0.0008787836, No Iterations 6
DILUPBiCGStab:  Solving for ILambda_14_0, Initial residual = 0.01332358, Final residual = 0.001181549, No Iterations 9
DILUPBiCGStab:  Solving for ILambda_15_0, Initial residual = 0.01039497, Final residual = 0.0009390072, No Iterations 5
Radiation solver iter: 7
DILUPBiCGStab:  Solving for ILambda_0_0, Initial residual = 0.02085074, Final residual = 2.272485e-17, No Iterations 1
DILUPBiCGStab:  Solving for ILambda_1_0, Initial residual = 0.01610263, Final residual = 8.90278e-18, No Iterations 1
DILUPBiCGStab:  Solving for ILambda_2_0, Initial residual = 0.009087775, Final residual = 5.132628e-18, No Iterations 1
DILUPBiCGStab:  Solving for ILambda_3_0, Initial residual = 0.0005609358, Final residual = 5.343598e-19, No Iterations 1
DILUPBiCGStab:  Solving for ILambda_4_0, Initial residual = 0.000692898, Final residual = 5.96544e-05, No Iterations 2
DILUPBiCGStab:  Solving for ILambda_5_0, Initial residual = 0.01334782, Final residual = 0.0005574504, No Iterations 3
DILUPBiCGStab:  Solving for ILambda_6_0, Initial residual = 0.03311516, Final residual = 0.00289653, No Iterations 2
DILUPBiCGStab:  Solving for ILambda_7_0, Initial residual = 0.02750134, Final residual = 0.002261006, No Iterations 3
DILUPBiCGStab:  Solving for ILambda_8_0, Initial residual = 0.003516591, Final residual = 2.818438e-18, No Iterations 1
DILUPBiCGStab:  Solving for ILambda_9_0, Initial residual = 0.006117708, Final residual = 5.483214e-18, No Iterations 1
DILUPBiCGStab:  Solving for ILambda_10_0, Initial residual = 0.005442504, Final residual = 6.397128e-18, No Iterations 1
DILUPBiCGStab:  Solving for ILambda_11_0, Initial residual = 0.004104745, Final residual = 9.786453e-18, No Iterations 1
DILUPBiCGStab:  Solving for ILambda_12_0, Initial residual = 0.004867808, Final residual = 0.0002990691, No Iterations 4
DILUPBiCGStab:  Solving for ILambda_13_0, Initial residual = 0.008058734, Final residual = 0.0006419346, No Iterations 6
DILUPBiCGStab:  Solving for ILambda_14_0, Initial residual = 0.0111715, Final residual = 0.000964143, No Iterations 6
DILUPBiCGStab:  Solving for ILambda_15_0, Initial residual = 0.008857362, Final residual = 0.0008809994, No Iterations 4
Radiation solver iter: 8
DILUPBiCGStab:  Solving for ILambda_0_0, Initial residual = 0.01790731, Final residual = 1.86407e-17, No Iterations 1
DILUPBiCGStab:  Solving for ILambda_1_0, Initial residual = 0.01254296, Final residual = 6.440313e-18, No Iterations 1
DILUPBiCGStab:  Solving for ILambda_2_0, Initial residual = 0.005730648, Final residual = 3.552571e-18, No Iterations 1
DILUPBiCGStab:  Solving for ILambda_5_0, Initial residual = 0.008046029, Final residual = 0.0002613917, No Iterations 3
DILUPBiCGStab:  Solving for ILambda_6_0, Initial residual = 0.02592888, Final residual = 0.002019482, No Iterations 2
DILUPBiCGStab:  Solving for ILambda_7_0, Initial residual = 0.02384625, Final residual = 0.001281639, No Iterations 4
DILUPBiCGStab:  Solving for ILambda_8_0, Initial residual = 0.00310224, Final residual = 2.277372e-18, No Iterations 1
DILUPBiCGStab:  Solving for ILambda_9_0, Initial residual = 0.005297406, Final residual = 4.4731e-18, No Iterations 1
DILUPBiCGStab:  Solving for ILambda_10_0, Initial residual = 0.004454185, Final residual = 5.278638e-18, No Iterations 1
DILUPBiCGStab:  Solving for ILambda_11_0, Initial residual = 0.003363009, Final residual = 8.114903e-18, No Iterations 1
DILUPBiCGStab:  Solving for ILambda_12_0, Initial residual = 0.004105346, Final residual = 0.00016562, No Iterations 4
DILUPBiCGStab:  Solving for ILambda_13_0, Initial residual = 0.006684281, Final residual = 0.0002774757, No Iterations 8
DILUPBiCGStab:  Solving for ILambda_14_0, Initial residual = 0.00928131, Final residual = 0.0004182269, No Iterations 6
DILUPBiCGStab:  Solving for ILambda_15_0, Initial residual = 0.007554335, Final residual = 0.0004241401, No Iterations 6
Radiation solver iter: 9
DILUPBiCGStab:  Solving for ILambda_0_0, Initial residual = 0.01524964, Final residual = 1.487825e-17, No Iterations 1
DILUPBiCGStab:  Solving for ILambda_1_0, Initial residual = 0.009800966, Final residual = 5.124228e-18, No Iterations 1
DILUPBiCGStab:  Solving for ILambda_2_0, Initial residual = 0.003486095, Final residual = 2.101783e-18, No Iterations 1
DILUPBiCGStab:  Solving for ILambda_5_0, Initial residual = 0.004724303, Final residual = 0.0001269366, No Iterations 3
DILUPBiCGStab:  Solving for ILambda_6_0, Initial residual = 0.02001066, Final residual = 0.001294877, No Iterations 2
DILUPBiCGStab:  Solving for ILambda_7_0, Initial residual = 0.02052981, Final residual = 0.0008533468, No Iterations 4
DILUPBiCGStab:  Solving for ILambda_8_0, Initial residual = 0.002708416, Final residual = 1.974832e-18, No Iterations 1
DILUPBiCGStab:  Solving for ILambda_9_0, Initial residual = 0.004544895, Final residual = 3.928286e-18, No Iterations 1
DILUPBiCGStab:  Solving for ILambda_10_0, Initial residual = 0.003700047, Final residual = 4.339482e-18, No Iterations 1
DILUPBiCGStab:  Solving for ILambda_11_0, Initial residual = 0.002705898, Final residual = 6.441246e-18, No Iterations 1
DILUPBiCGStab:  Solving for ILambda_12_0, Initial residual = 0.003277257, Final residual = 0.0001629108, No Iterations 4
DILUPBiCGStab:  Solving for ILambda_13_0, Initial residual = 0.005670486, Final residual = 0.0003194713, No Iterations 7
DILUPBiCGStab:  Solving for ILambda_14_0, Initial residual = 0.007890445, Final residual = 0.0006837528, No Iterations 4
DILUPBiCGStab:  Solving for ILambda_15_0, Initial residual = 0.006395022, Final residual = 0.0005482128, No Iterations 4
Radiation solver iter: 10
DILUPBiCGStab:  Solving for ILambda_0_0, Initial residual = 0.01283965, Final residual = 1.219372e-17, No Iterations 1
DILUPBiCGStab:  Solving for ILambda_1_0, Initial residual = 0.007672404, Final residual = 3.366029e-18, No Iterations 1
DILUPBiCGStab:  Solving for ILambda_2_0, Initial residual = 0.002049079, Final residual = 9.576587e-19, No Iterations 1
DILUPBiCGStab:  Solving for ILambda_5_0, Initial residual = 0.002715058, Final residual = 6.501217e-05, No Iterations 3
DILUPBiCGStab:  Solving for ILambda_6_0, Initial residual = 0.01513262, Final residual = 0.0008202156, No Iterations 2
DILUPBiCGStab:  Solving for ILambda_7_0, Initial residual = 0.01757457, Final residual = 0.001618046, No Iterations 2
DILUPBiCGStab:  Solving for ILambda_8_0, Initial residual = 0.002350299, Final residual = 1.545458e-18, No Iterations 1
DILUPBiCGStab:  Solving for ILambda_9_0, Initial residual = 0.003840941, Final residual = 2.992958e-18, No Iterations 1
DILUPBiCGStab:  Solving for ILambda_10_0, Initial residual = 0.003021862, Final residual = 3.575474e-18, No Iterations 1
DILUPBiCGStab:  Solving for ILambda_11_0, Initial residual = 0.002080094, Final residual = 4.851917e-18, No Iterations 1
DILUPBiCGStab:  Solving for ILambda_12_0, Initial residual = 0.002532759, Final residual = 0.0001041192, No Iterations 4
DILUPBiCGStab:  Solving for ILambda_13_0, Initial residual = 0.004824986, Final residual = 0.0004311507, No Iterations 7
DILUPBiCGStab:  Solving for ILambda_14_0, Initial residual = 0.006814108, Final residual = 0.0003984409, No Iterations 6
DILUPBiCGStab:  Solving for ILambda_15_0, Initial residual = 0.005477209, Final residual = 0.0003675, No Iterations 5
Radiation solver iter: 11
DILUPBiCGStab:  Solving for ILambda_0_0, Initial residual = 0.01070953, Final residual = 9.249821e-18, No Iterations 1
DILUPBiCGStab:  Solving for ILambda_1_0, Initial residual = 0.006009604, Final residual = 2.490813e-18, No Iterations 1
DILUPBiCGStab:  Solving for ILambda_2_0, Initial residual = 0.001165806, Final residual = 4.742778e-19, No Iterations 1
DILUPBiCGStab:  Solving for ILambda_5_0, Initial residual = 0.001528821, Final residual = 3.88018e-05, No Iterations 3
DILUPBiCGStab:  Solving for ILambda_6_0, Initial residual = 0.0112592, Final residual = 0.0009985359, No Iterations 2
DILUPBiCGStab:  Solving for ILambda_7_0, Initial residual = 0.01516533, Final residual = 0.001323152, No Iterations 3
DILUPBiCGStab:  Solving for ILambda_8_0, Initial residual = 0.002028765, Final residual = 1.302178e-18, No Iterations 1
DILUPBiCGStab:  Solving for ILambda_9_0, Initial residual = 0.003211265, Final residual = 2.478259e-18, No Iterations 1
DILUPBiCGStab:  Solving for ILambda_10_0, Initial residual = 0.002441658, Final residual = 2.726622e-18, No Iterations 1
DILUPBiCGStab:  Solving for ILambda_11_0, Initial residual = 0.00159009, Final residual = 3.758545e-18, No Iterations 1
DILUPBiCGStab:  Solving for ILambda_12_0, Initial residual = 0.001938251, Final residual = 8.010757e-05, No Iterations 4
DILUPBiCGStab:  Solving for ILambda_13_0, Initial residual = 0.003981728, Final residual = 0.0003770842, No Iterations 6
DILUPBiCGStab:  Solving for ILambda_14_0, Initial residual = 0.005787929, Final residual = 0.0003154106, No Iterations 6
DILUPBiCGStab:  Solving for ILambda_15_0, Initial residual = 0.004653273, Final residual = 0.0003968636, No Iterations 5
Radiation solver iter: 12
DILUPBiCGStab:  Solving for ILambda_0_0, Initial residual = 0.008858088, Final residual = 7.414285e-18, No Iterations 1
DILUPBiCGStab:  Solving for ILambda_1_0, Initial residual = 0.004655763, Final residual = 1.943727e-18, No Iterations 1
DILUPBiCGStab:  Solving for ILambda_2_0, Initial residual = 0.0006478015, Final residual = 2.93157e-19, No Iterations 1
DILUPBiCGStab:  Solving for ILambda_5_0, Initial residual = 0.000847943, Final residual = 8.597412e-05, No Iterations 2
DILUPBiCGStab:  Solving for ILambda_6_0, Initial residual = 0.008308552, Final residual = 0.0006597524, No Iterations 2
DILUPBiCGStab:  Solving for ILambda_7_0, Initial residual = 0.01304787, Final residual = 0.0008885987, No Iterations 3
DILUPBiCGStab:  Solving for ILambda_8_0, Initial residual = 0.001750798, Final residual = 1.286765e-18, No Iterations 1
DILUPBiCGStab:  Solving for ILambda_9_0, Initial residual = 0.002669315, Final residual = 1.998091e-18, No Iterations 1
DILUPBiCGStab:  Solving for ILambda_10_0, Initial residual = 0.001932884, Final residual = 2.128284e-18, No Iterations 1
DILUPBiCGStab:  Solving for ILambda_11_0, Initial residual = 0.001198431, Final residual = 2.854389e-18, No Iterations 1
DILUPBiCGStab:  Solving for ILambda_12_0, Initial residual = 0.001463185, Final residual = 5.807275e-05, No Iterations 4
DILUPBiCGStab:  Solving for ILambda_13_0, Initial residual = 0.0032099, Final residual = 0.0002893101, No Iterations 5
DILUPBiCGStab:  Solving for ILambda_14_0, Initial residual = 0.004853661, Final residual = 0.0001157175, No Iterations 9
DILUPBiCGStab:  Solving for ILambda_15_0, Initial residual = 0.003957871, Final residual = 0.0002152204, No Iterations 5
Radiation solver iter: 13
DILUPBiCGStab:  Solving for ILambda_0_0, Initial residual = 0.007274906, Final residual = 5.660802e-18, No Iterations 1
DILUPBiCGStab:  Solving for ILambda_1_0, Initial residual = 0.003564988, Final residual = 1.349512e-18, No Iterations 1
DILUPBiCGStab:  Solving for ILambda_6_0, Initial residual = 0.006051961, Final residual = 0.0004214462, No Iterations 2
DILUPBiCGStab:  Solving for ILambda_7_0, Initial residual = 0.01111419, Final residual = 0.0008439674, No Iterations 2
DILUPBiCGStab:  Solving for ILambda_8_0, Initial residual = 0.001517622, Final residual = 8.457545e-19, No Iterations 1
DILUPBiCGStab:  Solving for ILambda_9_0, Initial residual = 0.002216375, Final residual = 1.621651e-18, No Iterations 1
DILUPBiCGStab:  Solving for ILambda_10_0, Initial residual = 0.001515672, Final residual = 1.699001e-18, No Iterations 1
DILUPBiCGStab:  Solving for ILambda_11_0, Initial residual = 0.0009315319, Final residual = 2.309033e-18, No Iterations 1
DILUPBiCGStab:  Solving for ILambda_12_0, Initial residual = 0.001131393, Final residual = 4.564048e-05, No Iterations 4
DILUPBiCGStab:  Solving for ILambda_13_0, Initial residual = 0.002577307, Final residual = 0.0002361291, No Iterations 6
DILUPBiCGStab:  Solving for ILambda_14_0, Initial residual = 0.00405751, Final residual = 0.0003237791, No Iterations 10
DILUPBiCGStab:  Solving for ILambda_15_0, Initial residual = 0.003344969, Final residual = 0.0002824357, No Iterations 5
Radiation solver iter: 14
DILUPBiCGStab:  Solving for ILambda_0_0, Initial residual = 0.005937988, Final residual = 4.487275e-18, No Iterations 1
DILUPBiCGStab:  Solving for ILambda_1_0, Initial residual = 0.002679742, Final residual = 1.166987e-18, No Iterations 1
DILUPBiCGStab:  Solving for ILambda_6_0, Initial residual = 0.004334316, Final residual = 0.0002660772, No Iterations 2
DILUPBiCGStab:  Solving for ILambda_7_0, Initial residual = 0.009489846, Final residual = 0.0008342452, No Iterations 2
DILUPBiCGStab:  Solving for ILambda_8_0, Initial residual = 0.001318343, Final residual = 8.173078e-19, No Iterations 1
DILUPBiCGStab:  Solving for ILambda_9_0, Initial residual = 0.001827738, Final residual = 1.473805e-18, No Iterations 1
DILUPBiCGStab:  Solving for ILambda_10_0, Initial residual = 0.00117821, Final residual = 1.377103e-18, No Iterations 1
DILUPBiCGStab:  Solving for ILambda_12_0, Initial residual = 0.00089883, Final residual = 3.57134e-05, No Iterations 4
DILUPBiCGStab:  Solving for ILambda_13_0, Initial residual = 0.00199376, Final residual = 0.000182932, No Iterations 7
DILUPBiCGStab:  Solving for ILambda_14_0, Initial residual = 0.003418852, Final residual = 0.000328118, No Iterations 4
DILUPBiCGStab:  Solving for ILambda_15_0, Initial residual = 0.002848759, Final residual = 0.0001519829, No Iterations 5
GAMG:  Solving for p_rgh, Initial residual = 0.02419944, Final residual = 4.861491e-05, No Iterations 2
limitVelocity limitU Limited 0 (0%) of cells, with max limit 5
time step continuity errors : sum local = 0.0002054201, global = 3.802883e-17, cumulative = 1.756411e-15
rho min/max : 0.6109235 0.9677941
DILUPBiCGStab:  Solving for omega, Initial residual = 0.0001572464, Final residual = 6.320282e-06, No Iterations 1
DILUPBiCGStab:  Solving for k, Initial residual = 0.0006328477, Final residual = 2.329303e-05, No Iterations 1
ExecutionTime = 1.08 s  ClockTime = 2 s

Time = 3004

DILUPBiCGStab:  Solving for h, Initial residual = 0.0002554123, Final residual = 7.291725e-08, No Iterations 1
limitTemperature limitT Lower limited 0 (0%) of cells, with min limit 280
limitTemperature limitT Upper limited 0 (0%) of cells, with max limit 1200
limitTemperature limitT Unlimited Tmin 414.3062
limitTemperature limitT Unlimited Tmax 490.4182
GAMG:  Solving for p_rgh, Initial residual = 0.01755087, Final residual = 4.004004e-05, No Iterations 2
limitVelocity limitU Limited 0 (0%) of cells, with max limit 5
time step continuity errors : sum local = 0.0001740955, global = -5.084824e-18, cumulative = 1.751327e-15
rho min/max : 0.6135882 0.9677167
DILUPBiCGStab:  Solving for omega, Initial residual = 0.0001429452, Final residual = 6.052584e-06, No Iterations 1
DILUPBiCGStab:  Solving for k, Initial residual = 0.0006246891, Final residual = 2.128108e-05, No Iterations 1
ExecutionTime = 1.1 s  ClockTime = 2 s

Time = 3005

DILUPBiCGStab:  Solving for h, Initial residual = 0.000254977, Final residual = 7.188904e-08, No Iterations 1
limitTemperature limitT Lower limited 0 (0%) of cells, with min limit 280
limitTemperature limitT Upper limited 0 (0%) of cells, with max limit 1200
limitTemperature limitT Unlimited Tmin 414.3024
limitTemperature limitT Unlimited Tmax 490.689
GAMG:  Solving for p_rgh, Initial residual = 0.01204757, Final residual = 3.327401e-05, No Iterations 2
limitVelocity limitU Limited 0 (0%) of cells, with max limit 5
time step continuity errors : sum local = 0.0001490523, global = 2.573365e-17, cumulative = 1.77706e-15
rho min/max : 0.6160598 0.9676458
DILUPBiCGStab:  Solving for omega, Initial residual = 0.0001467102, Final residual = 5.77002e-06, No Iterations 1
DILUPBiCGStab:  Solving for k, Initial residual = 0.0006390109, Final residual = 2.481499e-05, No Iterations 1
ExecutionTime = 1.11 s  ClockTime = 2 s

Time = 3006

DILUPBiCGStab:  Solving for h, Initial residual = 0.0002547206, Final residual = 7.121748e-08, No Iterations 1
limitTemperature limitT Lower limited 0 (0%) of cells, with min limit 280
limitTemperature limitT Upper limited 0 (0%) of cells, with max limit 1200
limitTemperature limitT Unlimited Tmin 414.2988
limitTemperature limitT Unlimited Tmax 490.9314
Radiation solver iter: 0
DILUPBiCGStab:  Solving for ILambda_0_0, Initial residual = 0.01760134, Final residual = 8.759395e-17, No Iterations 1
DILUPBiCGStab:  Solving for ILambda_1_0, Initial residual = 0.03468231, Final residual = 1.792883e-16, No Iterations 1
DILUPBiCGStab:  Solving for ILambda_2_0, Initial residual = 0.06109592, Final residual = 2.907189e-16, No Iterations 1
DILUPBiCGStab:  Solving for ILambda_3_0, Initial residual = 0.114012, Final residual = 5.724458e-16, No Iterations 1
DILUPBiCGStab:  Solving for ILambda_4_0, Initial residual = 0.1248858, Final residual = 0.008996902, No Iterations 5
DILUPBiCGStab:  Solving for ILambda_5_0, Initial residual = 0.07197607, Final residual = 0.0004691635, No Iterations 12
DILUPBiCGStab:  Solving for ILambda_6_0, Initial residual = 0.04269018, Final residual = 0.000335438, No Iterations 19
DILUPBiCGStab:  Solving for ILambda_7_0, Initial residual = 0.0242264, Final residual = 0.001458423, No Iterations 12
DILUPBiCGStab:  Solving for ILambda_8_0, Initial residual = 0.003707712, Final residual = 1.374204e-17, No Iterations 1
DILUPBiCGStab:  Solving for ILambda_9_0, Initial residual = 0.007198645, Final residual = 3.059697e-17, No Iterations 1
DILUPBiCGStab:  Solving for ILambda_10_0, Initial residual = 0.01174775, Final residual = 5.381115e-17, No Iterations 1
DILUPBiCGStab:  Solving for ILambda_11_0, Initial residual = 0.02027296, Final residual = 9.876742e-17, No Iterations 1
DILUPBiCGStab:  Solving for ILambda_12_0, Initial residual = 0.02471654, Final residual = 0.0001204563, No Iterations 5
DILUPBiCGStab:  Solving for ILambda_13_0, Initial residual = 0.0203705, Final residual = 0.001670879, No Iterations 10
DILUPBiCGStab:  Solving for ILambda_14_0, Initial residual = 0.01636205, Final residual = 0.001230861, No Iterations 16
DILUPBiCGStab:  Solving for ILambda_15_0, Initial residual = 0.01031153, Final residual = 0.000879233, No Iterations 24
Radiation solver iter: 1
DILUPBiCGStab:  Solving for ILambda_0_0, Initial residual = 0.01566319, Final residual = 3.995568e-17, No Iterations 1
DILUPBiCGStab:  Solving for ILambda_1_0, Initial residual = 0.0211041, Final residual = 3.868486e-17, No Iterations 1
DILUPBiCGStab:  Solving for ILambda_2_0, Initial residual = 0.02660329, Final residual = 4.199518e-17, No Iterations 1
DILUPBiCGStab:  Solving for ILambda_3_0, Initial residual = 0.02839442, Final residual = 5.187738e-17, No Iterations 1
DILUPBiCGStab:  Solving for ILambda_4_0, Initial residual = 0.03755402, Final residual = 0.001319107, No Iterations 4
DILUPBiCGStab:  Solving for ILambda_5_0, Initial residual = 0.03376692, Final residual = 0.00290634, No Iterations 7
DILUPBiCGStab:  Solving for ILambda_6_0, Initial residual = 0.02692492, Final residual = 0.001642908, No Iterations 13
DILUPBiCGStab:  Solving for ILambda_7_0, Initial residual = 0.02032955, Final residual = 0.001789194, No Iterations 7
DILUPBiCGStab:  Solving for ILambda_8_0, Initial residual = 0.001952885, Final residual = 2.318657e-18, No Iterations 1
DILUPBiCGStab:  Solving for ILambda_9_0, Initial residual = 0.002868807, Final residual = 4.382044e-18, No Iterations 1
DILUPBiCGStab:  Solving for ILambda_10_0, Initial residual = 0.003447414, Final residual = 7.542259e-18, No Iterations 1
DILUPBiCGStab:  Solving for ILambda_11_0, Initial residual = 0.004754922, Final residual = 1.623515e-17, No Iterations 1
DILUPBiCGStab:  Solving for ILambda_12_0, Initial residual = 0.005786601, Final residual = 0.0003903577, No Iterations 4
DILUPBiCGStab:  Solving for ILambda_13_0, Initial residual = 0.006955306, Final residual = 0.0004196196, No Iterations 10
DILUPBiCGStab:  Solving for ILambda_14_0, Initial residual = 0.006771226, Final residual = 0.0002562996, No Iterations 13
DILUPBiCGStab:  Solving for ILambda_15_0, Initial residual = 0.005742944, Final residual = 0.0005596008, No Iterations 17
Radiation solver iter: 2
DILUPBiCGStab:  Solving for ILambda_0_0, Initial residual = 0.0124163, Final residual = 2.225353e-17, No Iterations 1
DILUPBiCGStab:  Solving for ILambda_1_0, Initial residual = 0.01667742, Final residual = 1.819983e-17, No Iterations 1
DILUPBiCGStab:  Solving for ILambda_2_0, Initial residual = 0.02056615, Final residual = 1.929039e-17, No Iterations 1
DILUPBiCGStab:  Solving for ILambda_3_0, Initial residual = 0.01762217, Final residual = 1.928855e-17, No Iterations 1
DILUPBiCGStab:  Solving for ILambda_4_0, Initial residual = 0.02018128, Final residual = 0.001439423, No Iterations 3
DILUPBiCGStab:  Solving for ILambda_5_0, Initial residual = 0.02729085, Final residual = 0.002136622, No Iterations 5
DILUPBiCGStab:  Solving for ILambda_6_0, Initial residual = 0.02177839, Final residual = 0.002169436, No Iterations 5
DILUPBiCGStab:  Solving for ILambda_7_0, Initial residual = 0.01622028, Final residual = 0.001471536, No Iterations 4
DILUPBiCGStab:  Solving for ILambda_8_0, Initial residual = 0.001637727, Final residual = 1.30531e-18, No Iterations 1
DILUPBiCGStab:  Solving for ILambda_9_0, Initial residual = 0.00239011, Final residual = 3.199889e-18, No Iterations 1
DILUPBiCGStab:  Solving for ILambda_10_0, Initial residual = 0.003013731, Final residual = 6.097035e-18, No Iterations 1
DILUPBiCGStab:  Solving for ILambda_11_0, Initial residual = 0.003779368, Final residual = 1.157351e-17, No Iterations 1
DILUPBiCGStab:  Solving for ILambda_12_0, Initial residual = 0.004853058, Final residual = 0.0001728007, No Iterations 4
DILUPBiCGStab:  Solving for ILambda_13_0, Initial residual = 0.005688555, Final residual = 0.0002448336, No Iterations 8
DILUPBiCGStab:  Solving for ILambda_14_0, Initial residual = 0.005688169, Final residual = 3.002305e-05, No Iterations 14
DILUPBiCGStab:  Solving for ILambda_15_0, Initial residual = 0.00476938, Final residual = 0.0004668373, No Iterations 11
Radiation solver iter: 3
DILUPBiCGStab:  Solving for ILambda_0_0, Initial residual = 0.01017669, Final residual = 1.573603e-17, No Iterations 1
DILUPBiCGStab:  Solving for ILambda_1_0, Initial residual = 0.0125448, Final residual = 1.143877e-17, No Iterations 1
DILUPBiCGStab:  Solving for ILambda_2_0, Initial residual = 0.01395445, Final residual = 1.218781e-17, No Iterations 1
DILUPBiCGStab:  Solving for ILambda_3_0, Initial residual = 0.008796055, Final residual = 8.432903e-18, No Iterations 1
DILUPBiCGStab:  Solving for ILambda_4_0, Initial residual = 0.009571429, Final residual = 0.0005290392, No Iterations 2
DILUPBiCGStab:  Solving for ILambda_5_0, Initial residual = 0.01875863, Final residual = 0.001151019, No Iterations 4
DILUPBiCGStab:  Solving for ILambda_6_0, Initial residual = 0.01755418, Final residual = 0.001558378, No Iterations 4
DILUPBiCGStab:  Solving for ILambda_7_0, Initial residual = 0.01240493, Final residual = 0.001033107, No Iterations 4
DILUPBiCGStab:  Solving for ILambda_8_0, Initial residual = 0.001407061, Final residual = 1.029617e-18, No Iterations 1
DILUPBiCGStab:  Solving for ILambda_9_0, Initial residual = 0.002155599, Final residual = 2.726985e-18, No Iterations 1
DILUPBiCGStab:  Solving for ILambda_10_0, Initial residual = 0.002740645, Final residual = 4.724018e-18, No Iterations 1
DILUPBiCGStab:  Solving for ILambda_11_0, Initial residual = 0.002849108, Final residual = 7.829141e-18, No Iterations 1
DILUPBiCGStab:  Solving for ILambda_12_0, Initial residual = 0.003441365, Final residual = 0.0003277448, No Iterations 4
DILUPBiCGStab:  Solving for ILambda_13_0, Initial residual = 0.005051674, Final residual = 0.0002594433, No Iterations 8
DILUPBiCGStab:  Solving for ILambda_14_0, Initial residual = 0.005101443, Final residual = 5.751809e-05, No Iterations 14
DILUPBiCGStab:  Solving for ILambda_15_0, Initial residual = 0.004027133, Final residual = 0.0002490962, No Iterations 9
Radiation solver iter: 4
DILUPBiCGStab:  Solving for ILambda_0_0, Initial residual = 0.008489557, Final residual = 1.170707e-17, No Iterations 1
DILUPBiCGStab:  Solving for ILambda_1_0, Initial residual = 0.009871012, Final residual = 8.479628e-18, No Iterations 1
DILUPBiCGStab:  Solving for ILambda_2_0, Initial residual = 0.009692639, Final residual = 6.758492e-18, No Iterations 1
DILUPBiCGStab:  Solving for ILambda_3_0, Initial residual = 0.003976502, Final residual = 3.455258e-18, No Iterations 1
DILUPBiCGStab:  Solving for ILambda_4_0, Initial residual = 0.004251937, Final residual = 0.0003571653, No Iterations 2
DILUPBiCGStab:  Solving for ILambda_5_0, Initial residual = 0.01279805, Final residual = 0.001249678, No Iterations 3
DILUPBiCGStab:  Solving for ILambda_6_0, Initial residual = 0.01408571, Final residual = 0.0008524537, No Iterations 4
DILUPBiCGStab:  Solving for ILambda_7_0, Initial residual = 0.009753717, Final residual = 0.000837847, No Iterations 3
DILUPBiCGStab:  Solving for ILambda_8_0, Initial residual = 0.001239655, Final residual = 1.008576e-18, No Iterations 1
DILUPBiCGStab:  Solving for ILambda_9_0, Initial residual = 0.001905343, Final residual = 1.887843e-18, No Iterations 1
DILUPBiCGStab:  Solving for ILambda_10_0, Initial residual = 0.002294192, Final residual = 3.18043e-18, No Iterations 1
DILUPBiCGStab:  Solving for ILambda_11_0, Initial residual = 0.001945114, Final residual = 4.574723e-18, No Iterations 1
DILUPBiCGStab:  Solving for ILambda_12_0, Initial residual = 0.002341537, Final residual = 0.0001769573, No Iterations 4
DILUPBiCGStab:  Solving for ILambda_13_0, Initial residual = 0.004131559, Final residual = 0.0004122026, No Iterations 6
DILUPBiCGStab:  Solving for ILambda_14_0, Initial residual = 0.004542463, Final residual = 0.0004461185, No Iterations 8
DILUPBiCGStab:  Solving for ILambda_15_0, Initial residual = 0.003456261, Final residual = 0.0003048951, No Iterations 7
Radiation solver iter: 5
DILUPBiCGStab:  Solving for ILambda_0_0, Initial residual = 0.00714746, Final residual = 8.682639e-18, No Iterations 1
DILUPBiCGStab:  Solving for ILambda_1_0, Initial residual = 0.00791303, Final residual = 5.555165e-18, No Iterations 1
DILUPBiCGStab:  Solving for ILambda_2_0, Initial residual = 0.006801717, Final residual = 3.825638e-18, No Iterations 1
DILUPBiCGStab:  Solving for ILambda_3_0, Initial residual = 0.001679891, Final residual = 1.451154e-18, No Iterations 1
DILUPBiCGStab:  Solving for ILambda_4_0, Initial residual = 0.001824791, Final residual = 0.0001118564, No Iterations 2
DILUPBiCGStab:  Solving for ILambda_5_0, Initial residual = 0.008755295, Final residual = 0.0005678201, No Iterations 4
DILUPBiCGStab:  Solving for ILambda_6_0, Initial residual = 0.01115551, Final residual = 0.0006526013, No Iterations 4
DILUPBiCGStab:  Solving for ILambda_7_0, Initial residual = 0.007819991, Final residual = 0.0007426067, No Iterations 3
DILUPBiCGStab:  Solving for ILambda_8_0, Initial residual = 0.001080476, Final residual = 9.18326e-19, No Iterations 1
DILUPBiCGStab:  Solving for ILambda_9_0, Initial residual = 0.001646757, Final residual = 1.474522e-18, No Iterations 1
DILUPBiCGStab:  Solving for ILambda_10_0, Initial residual = 0.001827217, Final residual = 2.289693e-18, No Iterations 1
DILUPBiCGStab:  Solving for ILambda_11_0, Initial residual = 0.001387882, Final residual = 3.082224e-18, No Iterations 1
DILUPBiCGStab:  Solving for ILambda_12_0, Initial residual = 0.001652408, Final residual = 0.0001036319, No Iterations 3
DILUPBiCGStab:  Solving for ILambda_13_0, Initial residual = 0.00331862, Final residual = 6.471272e-05, No Iterations 8
DILUPBiCGStab:  Solving for ILambda_14_0, Initial residual = 0.004018832, Final residual = 0.0002537932, No Iterations 9
DILUPBiCGStab:  Solving for ILambda_15_0, Initial residual = 0.002980839, Final residual = 0.0002299782, No Iterations 7
Radiation solver iter: 6
DILUPBiCGStab:  Solving for ILambda_0_0, Initial residual = 0.0060853, Final residual = 6.725879e-18, No Iterations 1
DILUPBiCGStab:  Solving for ILambda_1_0, Initial residual = 0.00625685, Final residual = 4.081397e-18, No Iterations 1
DILUPBiCGStab:  Solving for ILambda_2_0, Initial residual = 0.004723313, Final residual = 2.773922e-18, No Iterations 1
DILUPBiCGStab:  Solving for ILambda_3_0, Initial residual = 0.0006502475, Final residual = 3.998766e-19, No Iterations 1
DILUPBiCGStab:  Solving for ILambda_4_0, Initial residual = 0.000687554, Final residual = 4.231465e-05, No Iterations 2
DILUPBiCGStab:  Solving for ILambda_5_0, Initial residual = 0.005694322, Final residual = 0.0005298157, No Iterations 3
DILUPBiCGStab:  Solving for ILambda_6_0, Initial residual = 0.008640711, Final residual = 0.000560321, No Iterations 3
DILUPBiCGStab:  Solving for ILambda_7_0, Initial residual = 0.006317319, Final residual = 0.0003223278, No Iterations 4
DILUPBiCGStab:  Solving for ILambda_8_0, Initial residual = 0.0009269044, Final residual = 6.085577e-19, No Iterations 1
DILUPBiCGStab:  Solving for ILambda_9_0, Initial residual = 0.001400269, Final residual = 1.236451e-18, No Iterations 1
DILUPBiCGStab:  Solving for ILambda_10_0, Initial residual = 0.001393158, Final residual = 1.620751e-18, No Iterations 1
DILUPBiCGStab:  Solving for ILambda_11_0, Initial residual = 0.001033512, Final residual = 2.366911e-18, No Iterations 1
DILUPBiCGStab:  Solving for ILambda_12_0, Initial residual = 0.001271433, Final residual = 6.557574e-05, No Iterations 4
DILUPBiCGStab:  Solving for ILambda_13_0, Initial residual = 0.002375077, Final residual = 0.0002235928, No Iterations 7
DILUPBiCGStab:  Solving for ILambda_14_0, Initial residual = 0.003377525, Final residual = 0.0002239208, No Iterations 7
DILUPBiCGStab:  Solving for ILambda_15_0, Initial residual = 0.002537658, Final residual = 0.0002347356, No Iterations 6
Radiation solver iter: 7
DILUPBiCGStab:  Solving for ILambda_0_0, Initial residual = 0.005177868, Final residual = 5.552718e-18, No Iterations 1
DILUPBiCGStab:  Solving for ILambda_1_0, Initial residual = 0.00489886, Final residual = 2.853066e-18, No Iterations 1
DILUPBiCGStab:  Solving for ILambda_2_0, Initial residual = 0.003180852, Final residual = 1.767601e-18, No Iterations 1
DILUPBiCGStab:  Solving for ILambda_5_0, Initial residual = 0.003667929, Final residual = 0.0002253093, No Iterations 3
DILUPBiCGStab:  Solving for ILambda_6_0, Initial residual = 0.006722783, Final residual = 0.0005590244, No Iterations 2
DILUPBiCGStab:  Solving for ILambda_7_0, Initial residual = 0.005088854, Final residual = 0.0004585993, No Iterations 3
DILUPBiCGStab:  Solving for ILambda_9_0, Initial residual = 0.001199085, Final residual = 9.070733e-19, No Iterations 1
DILUPBiCGStab:  Solving for ILambda_10_0, Initial residual = 0.001071485, Final residual = 1.146454e-18, No Iterations 1
DILUPBiCGStab:  Solving for ILambda_11_0, Initial residual = 0.0008209457, Final residual = 1.931129e-18, No Iterations 1
DILUPBiCGStab:  Solving for ILambda_12_0, Initial residual = 0.0009934379, Final residual = 5.737835e-06, No Iterations 5
DILUPBiCGStab:  Solving for ILambda_13_0, Initial residual = 0.001817826, Final residual = 0.0001309048, No Iterations 6
DILUPBiCGStab:  Solving for ILambda_14_0, Initial residual = 0.002853158, Final residual = 0.0002424374, No Iterations 6
DILUPBiCGStab:  Solving for ILambda_15_0, Initial residual = 0.00214982, Final residual = 0.0001810975, No Iterations 8
Radiation solver iter: 8
DILUPBiCGStab:  Solving for ILambda_0_0, Initial residual = 0.004399414, Final residual = 4.336518e-18, No Iterations 1
DILUPBiCGStab:  Solving for ILambda_1_0, Initial residual = 0.003813842, Final residual = 2.116863e-18, No Iterations 1
DILUPBiCGStab:  Solving for ILambda_2_0, Initial residual = 0.002072544, Final residual = 1.077205e-18, No Iterations 1
DILUPBiCGStab:  Solving for ILambda_5_0, Initial residual = 0.002290701, Final residual = 0.0001989422, No Iterations 2
DILUPBiCGStab:  Solving for ILambda_6_0, Initial residual = 0.00525152, Final residual = 0.0003661572, No Iterations 2
DILUPBiCGStab:  Solving for ILambda_7_0, Initial residual = 0.004133854, Final residual = 0.0001745045, No Iterations 4
DILUPBiCGStab:  Solving for ILambda_9_0, Initial residual = 0.001030169, Final residual = 7.809132e-19, No Iterations 1
DILUPBiCGStab:  Solving for ILambda_10_0, Initial residual = 0.0008518303, Final residual = 9.427214e-19, No Iterations 1
DILUPBiCGStab:  Solving for ILambda_13_0, Initial residual = 0.001448325, Final residual = 0.0001007273, No Iterations 6
DILUPBiCGStab:  Solving for ILambda_14_0, Initial residual = 0.002417363, Final residual = 0.0002006041, No Iterations 4
DILUPBiCGStab:  Solving for ILambda_15_0, Initial residual = 0.001823295, Final residual = 0.0001722211, No Iterations 5
Radiation solver iter: 9
DILUPBiCGStab:  Solving for ILambda_0_0, Initial residual = 0.00371993, Final residual = 3.505194e-18, No Iterations 1
DILUPBiCGStab:  Solving for ILambda_1_0, Initial residual = 0.002968006, Final residual = 1.34035e-18, No Iterations 1
DILUPBiCGStab:  Solving for ILambda_2_0, Initial residual = 0.001296092, Final residual = 6.076631e-19, No Iterations 1
DILUPBiCGStab:  Solving for ILambda_5_0, Initial residual = 0.001391366, Final residual = 0.0001181209, No Iterations 2
DILUPBiCGStab:  Solving for ILambda_6_0, Initial residual = 0.004059852, Final residual = 0.0002527352, No Iterations 2
[...]
DILUPBiCGStab:  Solving for k, Initial residual = 0.0004240131, Final residual = 4.867353e-06, No Iterations 1
ExecutionTime = 11.37 s  ClockTime = 12 s

Time = 3290

DILUPBiCGStab:  Solving for h, Initial residual = 0.0002077944, Final residual = 5.269219e-08, No Iterations 1
limitTemperature limitT Lower limited 0 (0%) of cells, with min limit 280
limitTemperature limitT Upper limited 0 (0%) of cells, with max limit 1200
limitTemperature limitT Unlimited Tmin 414.323
limitTemperature limitT Unlimited Tmax 496.813
GAMG:  Solving for p_rgh, Initial residual = 0.0001845149, Final residual = 1.388182e-06, No Iterations 2
limitVelocity limitU Limited 0 (0%) of cells, with max limit 5
time step continuity errors : sum local = 5.587365e-06, global = 1.774108e-17, cumulative = 1.421987e-15
rho min/max : 0.6139061 0.9680129
DILUPBiCGStab:  Solving for omega, Initial residual = 6.50077e-05, Final residual = 2.755683e-06, No Iterations 1
DILUPBiCGStab:  Solving for k, Initial residual = 0.0004238511, Final residual = 5.150109e-06, No Iterations 1
ExecutionTime = 11.39 s  ClockTime = 12 s

Time = 3291

DILUPBiCGStab:  Solving for h, Initial residual = 0.0002076771, Final residual = 5.264939e-08, No Iterations 1
limitTemperature limitT Lower limited 0 (0%) of cells, with min limit 280
limitTemperature limitT Upper limited 0 (0%) of cells, with max limit 1200
limitTemperature limitT Unlimited Tmin 414.3233
limitTemperature limitT Unlimited Tmax 496.8127
Radiation solver iter: 0
DILUPBiCGStab:  Solving for ILambda_0_0, Initial residual = 0.0001891098, Final residual = 1.309623e-19, No Iterations 1
DILUPBiCGStab:  Solving for ILambda_1_0, Initial residual = 0.0004064201, Final residual = 2.048545e-19, No Iterations 1
DILUPBiCGStab:  Solving for ILambda_2_0, Initial residual = 0.0006679777, Final residual = 4.999987e-19, No Iterations 1
DILUPBiCGStab:  Solving for ILambda_3_0, Initial residual = 0.001065638, Final residual = 1.771071e-18, No Iterations 1
DILUPBiCGStab:  Solving for ILambda_4_0, Initial residual = 0.001236248, Final residual = 1.807158e-05, No Iterations 5
DILUPBiCGStab:  Solving for ILambda_5_0, Initial residual = 0.001053559, Final residual = 0.0001027152, No Iterations 7
DILUPBiCGStab:  Solving for ILambda_6_0, Initial residual = 0.0008050935, Final residual = 9.699193e-05, No Iterations 12
DILUPBiCGStab:  Solving for ILambda_7_0, Initial residual = 0.0004732604, Final residual = 6.882842e-05, No Iterations 12
DILUPBiCGStab:  Solving for ILambda_8_0, Initial residual = 0.0002574793, Final residual = 1.101151e-18, No Iterations 1
DILUPBiCGStab:  Solving for ILambda_9_0, Initial residual = 0.0002382395, Final residual = 7.111315e-19, No Iterations 1
DILUPBiCGStab:  Solving for ILambda_10_0, Initial residual = 0.0002578672, Final residual = 7.099902e-19, No Iterations 1
DILUPBiCGStab:  Solving for ILambda_11_0, Initial residual = 0.0002756672, Final residual = 8.683103e-19, No Iterations 1
DILUPBiCGStab:  Solving for ILambda_12_0, Initial residual = 0.000311904, Final residual = 3.560043e-05, No Iterations 4
DILUPBiCGStab:  Solving for ILambda_13_0, Initial residual = 0.0003538174, Final residual = 3.403354e-05, No Iterations 7
DILUPBiCGStab:  Solving for ILambda_14_0, Initial residual = 0.000349137, Final residual = 2.900904e-05, No Iterations 10
DILUPBiCGStab:  Solving for ILambda_15_0, Initial residual = 0.0004456342, Final residual = 5.798931e-05, No Iterations 6
Radiation solver iter: 1
DILUPBiCGStab:  Solving for ILambda_3_0, Initial residual = 0.0004330345, Final residual = 6.605088e-19, No Iterations 1
DILUPBiCGStab:  Solving for ILambda_4_0, Initial residual = 0.0008583068, Final residual = 8.691889e-05, No Iterations 3
DILUPBiCGStab:  Solving for ILambda_5_0, Initial residual = 0.0009156176, Final residual = 9.25271e-05, No Iterations 4
GAMG:  Solving for p_rgh, Initial residual = 0.0001889177, Final residual = 1.405727e-06, No Iterations 2
limitVelocity limitU Limited 0 (0%) of cells, with max limit 5
time step continuity errors : sum local = 5.549432e-06, global = 1.936901e-17, cumulative = 1.441356e-15
rho min/max : 0.614205 0.9680142
DILUPBiCGStab:  Solving for omega, Initial residual = 6.765505e-05, Final residual = 2.96244e-06, No Iterations 1
DILUPBiCGStab:  Solving for k, Initial residual = 0.0004232477, Final residual = 4.878641e-06, No Iterations 1
ExecutionTime = 11.45 s  ClockTime = 12 s

Time = 3292

DILUPBiCGStab:  Solving for h, Initial residual = 0.0002075439, Final residual = 5.260188e-08, No Iterations 1
limitTemperature limitT Lower limited 0 (0%) of cells, with min limit 280
limitTemperature limitT Upper limited 0 (0%) of cells, with max limit 1200
limitTemperature limitT Unlimited Tmin 414.3237
limitTemperature limitT Unlimited Tmax 496.8113
GAMG:  Solving for p_rgh, Initial residual = 0.0001940305, Final residual = 1.415027e-06, No Iterations 2
limitVelocity limitU Limited 0 (0%) of cells, with max limit 5
time step continuity errors : sum local = 5.504831e-06, global = 5.505615e-18, cumulative = 1.446862e-15
rho min/max : 0.6139049 0.9680155
DILUPBiCGStab:  Solving for omega, Initial residual = 6.79193e-05, Final residual = 2.952086e-06, No Iterations 1
DILUPBiCGStab:  Solving for k, Initial residual = 0.0004231821, Final residual = 5.048928e-06, No Iterations 1
ExecutionTime = 11.47 s  ClockTime = 12 s

Time = 3293

DILUPBiCGStab:  Solving for h, Initial residual = 0.0002074183, Final residual = 5.256031e-08, No Iterations 1
limitTemperature limitT Lower limited 0 (0%) of cells, with min limit 280
limitTemperature limitT Upper limited 0 (0%) of cells, with max limit 1200
limitTemperature limitT Unlimited Tmin 414.324
limitTemperature limitT Unlimited Tmax 496.812
GAMG:  Solving for p_rgh, Initial residual = 0.0001898338, Final residual = 1.372689e-06, No Iterations 2
limitVelocity limitU Limited 0 (0%) of cells, with max limit 5
time step continuity errors : sum local = 5.335877e-06, global = -5.08753e-17, cumulative = 1.395987e-15
rho min/max : 0.6136275 0.9680168
DILUPBiCGStab:  Solving for omega, Initial residual = 6.623359e-05, Final residual = 2.751282e-06, No Iterations 1
DILUPBiCGStab:  Solving for k, Initial residual = 0.0004220939, Final residual = 4.705448e-06, No Iterations 1
ExecutionTime = 11.49 s  ClockTime = 12 s

Time = 3294

DILUPBiCGStab:  Solving for h, Initial residual = 0.0002072744, Final residual = 5.250136e-08, No Iterations 1
limitTemperature limitT Lower limited 0 (0%) of cells, with min limit 280
limitTemperature limitT Upper limited 0 (0%) of cells, with max limit 1200
limitTemperature limitT Unlimited Tmin 414.3244
limitTemperature limitT Unlimited Tmax 496.8142
Radiation solver iter: 0
DILUPBiCGStab:  Solving for ILambda_0_0, Initial residual = 0.0001179829, Final residual = 7.873375e-20, No Iterations 1
DILUPBiCGStab:  Solving for ILambda_1_0, Initial residual = 0.0002802811, Final residual = 1.679955e-19, No Iterations 1
DILUPBiCGStab:  Solving for ILambda_2_0, Initial residual = 0.0005625721, Final residual = 2.969631e-19, No Iterations 1
DILUPBiCGStab:  Solving for ILambda_3_0, Initial residual = 0.0009251867, Final residual = 1.465358e-18, No Iterations 1
DILUPBiCGStab:  Solving for ILambda_4_0, Initial residual = 0.001268392, Final residual = 0.0001237944, No Iterations 3
DILUPBiCGStab:  Solving for ILambda_5_0, Initial residual = 0.001185875, Final residual = 0.0001146918, No Iterations 7
DILUPBiCGStab:  Solving for ILambda_6_0, Initial residual = 0.0007792547, Final residual = 7.186764e-05, No Iterations 10
DILUPBiCGStab:  Solving for ILambda_7_0, Initial residual = 0.0003985013, Final residual = 9.996126e-05, No Iterations 8
DILUPBiCGStab:  Solving for ILambda_8_0, Initial residual = 0.0002269762, Final residual = 8.940628e-19, No Iterations 1
DILUPBiCGStab:  Solving for ILambda_9_0, Initial residual = 0.0002068161, Final residual = 5.279003e-19, No Iterations 1
DILUPBiCGStab:  Solving for ILambda_10_0, Initial residual = 0.0002127779, Final residual = 4.563419e-19, No Iterations 1
DILUPBiCGStab:  Solving for ILambda_11_0, Initial residual = 0.0002154608, Final residual = 5.769656e-19, No Iterations 1
DILUPBiCGStab:  Solving for ILambda_12_0, Initial residual = 0.0002087592, Final residual = 8.837305e-05, No Iterations 2
DILUPBiCGStab:  Solving for ILambda_13_0, Initial residual = 0.0002428748, Final residual = 8.098155e-05, No Iterations 5
DILUPBiCGStab:  Solving for ILambda_14_0, Initial residual = 0.0002667896, Final residual = 9.353754e-05, No Iterations 1
DILUPBiCGStab:  Solving for ILambda_15_0, Initial residual = 0.0004085819, Final residual = 8.462354e-05, No Iterations 2
Radiation solver iter: 1
DILUPBiCGStab:  Solving for ILambda_4_0, Initial residual = 0.0007606392, Final residual = 6.224606e-05, No Iterations 3
DILUPBiCGStab:  Solving for ILambda_5_0, Initial residual = 0.0008242285, Final residual = 9.302126e-05, No Iterations 5
GAMG:  Solving for p_rgh, Initial residual = 0.0001862505, Final residual = 1.349098e-06, No Iterations 2
limitVelocity limitU Limited 0 (0%) of cells, with max limit 5
time step continuity errors : sum local = 5.256622e-06, global = 3.564728e-17, cumulative = 1.431634e-15
rho min/max : 0.6133709 0.9680181
DILUPBiCGStab:  Solving for omega, Initial residual = 6.62215e-05, Final residual = 2.928611e-06, No Iterations 1
DILUPBiCGStab:  Solving for k, Initial residual = 0.0004223092, Final residual = 5.160816e-06, No Iterations 1
ExecutionTime = 11.54 s  ClockTime = 12 s

Time = 3295

DILUPBiCGStab:  Solving for h, Initial residual = 0.0002071261, Final residual = 5.245181e-08, No Iterations 1
limitTemperature limitT Lower limited 0 (0%) of cells, with min limit 280
limitTemperature limitT Upper limited 0 (0%) of cells, with max limit 1200
limitTemperature limitT Unlimited Tmin 414.3247
limitTemperature limitT Unlimited Tmax 496.818
GAMG:  Solving for p_rgh, Initial residual = 0.0001861637, Final residual = 1.36896e-06, No Iterations 2
limitVelocity limitU Limited 0 (0%) of cells, with max limit 5
time step continuity errors : sum local = 5.332474e-06, global = -9.454092e-19, cumulative = 1.430688e-15
rho min/max : 0.613042 0.9680194
DILUPBiCGStab:  Solving for omega, Initial residual = 6.542039e-05, Final residual = 2.845197e-06, No Iterations 1
DILUPBiCGStab:  Solving for k, Initial residual = 0.0004218384, Final residual = 4.858158e-06, No Iterations 1
ExecutionTime = 11.55 s  ClockTime = 12 s

Time = 3296

DILUPBiCGStab:  Solving for h, Initial residual = 0.0002069979, Final residual = 5.24132e-08, No Iterations 1
limitTemperature limitT Lower limited 0 (0%) of cells, with min limit 280
limitTemperature limitT Upper limited 0 (0%) of cells, with max limit 1200
limitTemperature limitT Unlimited Tmin 414.3251
limitTemperature limitT Unlimited Tmax 496.8231
GAMG:  Solving for p_rgh, Initial residual = 0.0001855995, Final residual = 1.393015e-06, No Iterations 2
limitVelocity limitU Limited 0 (0%) of cells, with max limit 5
time step continuity errors : sum local = 5.443478e-06, global = 8.938363e-18, cumulative = 1.439627e-15
rho min/max : 0.6127378 0.9680207
DILUPBiCGStab:  Solving for omega, Initial residual = 6.421162e-05, Final residual = 2.734845e-06, No Iterations 1
DILUPBiCGStab:  Solving for k, Initial residual = 0.0004211356, Final residual = 4.958363e-06, No Iterations 1
ExecutionTime = 11.56 s  ClockTime = 12 s

Time = 3297

DILUPBiCGStab:  Solving for h, Initial residual = 0.0002068545, Final residual = 5.236812e-08, No Iterations 1
limitTemperature limitT Lower limited 0 (0%) of cells, with min limit 280
limitTemperature limitT Upper limited 0 (0%) of cells, with max limit 1200
limitTemperature limitT Unlimited Tmin 414.3255
limitTemperature limitT Unlimited Tmax 496.8296
Radiation solver iter: 0
DILUPBiCGStab:  Solving for ILambda_0_0, Initial residual = 0.0002009474, Final residual = 9.074975e-20, No Iterations 1
DILUPBiCGStab:  Solving for ILambda_1_0, Initial residual = 0.0004216914, Final residual = 2.310599e-19, No Iterations 1
DILUPBiCGStab:  Solving for ILambda_2_0, Initial residual = 0.0006874283, Final residual = 5.685892e-19, No Iterations 1
DILUPBiCGStab:  Solving for ILambda_3_0, Initial residual = 0.00112753, Final residual = 1.936396e-18, No Iterations 1
DILUPBiCGStab:  Solving for ILambda_4_0, Initial residual = 0.001260203, Final residual = 5.972693e-05, No Iterations 4
DILUPBiCGStab:  Solving for ILambda_5_0, Initial residual = 0.001064853, Final residual = 4.944388e-05, No Iterations 8
DILUPBiCGStab:  Solving for ILambda_6_0, Initial residual = 0.0008172188, Final residual = 8.50598e-05, No Iterations 9
DILUPBiCGStab:  Solving for ILambda_7_0, Initial residual = 0.0004555616, Final residual = 7.980579e-05, No Iterations 7
DILUPBiCGStab:  Solving for ILambda_8_0, Initial residual = 0.0002229747, Final residual = 8.788284e-19, No Iterations 1
DILUPBiCGStab:  Solving for ILambda_9_0, Initial residual = 0.0001984555, Final residual = 4.848473e-19, No Iterations 1
DILUPBiCGStab:  Solving for ILambda_10_0, Initial residual = 0.0002043893, Final residual = 4.077318e-19, No Iterations 1
DILUPBiCGStab:  Solving for ILambda_11_0, Initial residual = 0.0001993023, Final residual = 4.319675e-19, No Iterations 1
DILUPBiCGStab:  Solving for ILambda_12_0, Initial residual = 0.0002537289, Final residual = 8.111515e-05, No Iterations 2
DILUPBiCGStab:  Solving for ILambda_13_0, Initial residual = 0.0002675103, Final residual = 8.411883e-05, No Iterations 2
DILUPBiCGStab:  Solving for ILambda_14_0, Initial residual = 0.0002998298, Final residual = 8.99976e-05, No Iterations 3
DILUPBiCGStab:  Solving for ILambda_15_0, Initial residual = 0.0004118437, Final residual = 8.871475e-05, No Iterations 2
Radiation solver iter: 1
DILUPBiCGStab:  Solving for ILambda_3_0, Initial residual = 0.0004371965, Final residual = 5.672608e-19, No Iterations 1
DILUPBiCGStab:  Solving for ILambda_4_0, Initial residual = 0.00079214, Final residual = 6.471439e-05, No Iterations 3
DILUPBiCGStab:  Solving for ILambda_5_0, Initial residual = 0.0008531194, Final residual = 8.836405e-05, No Iterations 4
GAMG:  Solving for p_rgh, Initial residual = 0.0001890349, Final residual = 1.40101e-06, No Iterations 2
limitVelocity limitU Limited 0 (0%) of cells, with max limit 5
time step continuity errors : sum local = 5.47448e-06, global = -1.686098e-17, cumulative = 1.422766e-15
rho min/max : 0.6124571 0.968022
DILUPBiCGStab:  Solving for omega, Initial residual = 6.796141e-05, Final residual = 2.845511e-06, No Iterations 1
DILUPBiCGStab:  Solving for k, Initial residual = 0.0004202271, Final residual = 4.671759e-06, No Iterations 1
ExecutionTime = 11.61 s  ClockTime = 12 s

Time = 3298

DILUPBiCGStab:  Solving for h, Initial residual = 0.0002067225, Final residual = 5.230682e-08, No Iterations 1
limitTemperature limitT Lower limited 0 (0%) of cells, with min limit 280
limitTemperature limitT Upper limited 0 (0%) of cells, with max limit 1200
limitTemperature limitT Unlimited Tmin 414.3258
limitTemperature limitT Unlimited Tmax 496.8368
GAMG:  Solving for p_rgh, Initial residual = 0.0001914606, Final residual = 1.40037e-06, No Iterations 2
limitVelocity limitU Limited 0 (0%) of cells, with max limit 5
time step continuity errors : sum local = 5.45971e-06, global = -8.419168e-18, cumulative = 1.414347e-15
rho min/max : 0.61284 0.9680234
DILUPBiCGStab:  Solving for omega, Initial residual = 6.631976e-05, Final residual = 2.940332e-06, No Iterations 1
DILUPBiCGStab:  Solving for k, Initial residual = 0.0004206943, Final residual = 5.286383e-06, No Iterations 1
ExecutionTime = 11.63 s  ClockTime = 12 s

Time = 3299

DILUPBiCGStab:  Solving for h, Initial residual = 0.0002065945, Final residual = 5.225227e-08, No Iterations 1
limitTemperature limitT Lower limited 0 (0%) of cells, with min limit 280
limitTemperature limitT Upper limited 0 (0%) of cells, with max limit 1200
limitTemperature limitT Unlimited Tmin 414.3261
limitTemperature limitT Unlimited Tmax 496.8417
GAMG:  Solving for p_rgh, Initial residual = 0.0001882285, Final residual = 1.394492e-06, No Iterations 2
limitVelocity limitU Limited 0 (0%) of cells, with max limit 5
time step continuity errors : sum local = 5.421375e-06, global = -1.106379e-18, cumulative = 1.41324e-15
rho min/max : 0.6131948 0.9680247
DILUPBiCGStab:  Solving for omega, Initial residual = 6.39559e-05, Final residual = 2.536619e-06, No Iterations 1
DILUPBiCGStab:  Solving for k, Initial residual = 0.0004198507, Final residual = 4.87226e-06, No Iterations 1
ExecutionTime = 11.64 s  ClockTime = 12 s

Time = 3300

DILUPBiCGStab:  Solving for h, Initial residual = 0.0002064638, Final residual = 5.220337e-08, No Iterations 1
limitTemperature limitT Lower limited 0 (0%) of cells, with min limit 280
limitTemperature limitT Upper limited 0 (0%) of cells, with max limit 1200
limitTemperature limitT Unlimited Tmin 414.3265
limitTemperature limitT Unlimited Tmax 496.8444
Radiation solver iter: 0
DILUPBiCGStab:  Solving for ILambda_0_0, Initial residual = 0.0001394883, Final residual = 1.122839e-19, No Iterations 1
DILUPBiCGStab:  Solving for ILambda_1_0, Initial residual = 0.0003384103, Final residual = 2.278325e-19, No Iterations 1
DILUPBiCGStab:  Solving for ILambda_2_0, Initial residual = 0.0006790355, Final residual = 4.809645e-19, No Iterations 1
DILUPBiCGStab:  Solving for ILambda_3_0, Initial residual = 0.001131978, Final residual = 1.920108e-18, No Iterations 1
DILUPBiCGStab:  Solving for ILambda_4_0, Initial residual = 0.001468978, Final residual = 0.0001144812, No Iterations 4
DILUPBiCGStab:  Solving for ILambda_5_0, Initial residual = 0.001302456, Final residual = 5.001145e-05, No Iterations 8
DILUPBiCGStab:  Solving for ILambda_6_0, Initial residual = 0.0008321127, Final residual = 9.092682e-05, No Iterations 10
DILUPBiCGStab:  Solving for ILambda_7_0, Initial residual = 0.000429869, Final residual = 9.857404e-05, No Iterations 8
DILUPBiCGStab:  Solving for ILambda_8_0, Initial residual = 0.0002445901, Final residual = 1.059752e-18, No Iterations 1
DILUPBiCGStab:  Solving for ILambda_9_0, Initial residual = 0.0002238311, Final residual = 6.674463e-19, No Iterations 1
DILUPBiCGStab:  Solving for ILambda_10_0, Initial residual = 0.0002397629, Final residual = 6.83902e-19, No Iterations 1
DILUPBiCGStab:  Solving for ILambda_11_0, Initial residual = 0.0002446042, Final residual = 7.738229e-19, No Iterations 1
DILUPBiCGStab:  Solving for ILambda_12_0, Initial residual = 0.000292791, Final residual = 4.964312e-05, No Iterations 3
DILUPBiCGStab:  Solving for ILambda_13_0, Initial residual = 0.0003195335, Final residual = 9.497964e-05, No Iterations 4
DILUPBiCGStab:  Solving for ILambda_14_0, Initial residual = 0.0003388999, Final residual = 9.980856e-05, No Iterations 5
DILUPBiCGStab:  Solving for ILambda_15_0, Initial residual = 0.000435888, Final residual = 8.723386e-05, No Iterations 3
Radiation solver iter: 1
DILUPBiCGStab:  Solving for ILambda_3_0, Initial residual = 0.0003946641, Final residual = 5.584609e-19, No Iterations 1
DILUPBiCGStab:  Solving for ILambda_4_0, Initial residual = 0.0009045462, Final residual = 7.217387e-05, No Iterations 3
DILUPBiCGStab:  Solving for ILambda_5_0, Initial residual = 0.0009157775, Final residual = 7.87372e-05, No Iterations 5
GAMG:  Solving for p_rgh, Initial residual = 0.0001888218, Final residual = 1.390899e-06, No Iterations 2
limitVelocity limitU Limited 0 (0%) of cells, with max limit 5
time step continuity errors : sum local = 5.388155e-06, global = 1.530983e-17, cumulative = 1.42855e-15
rho min/max : 0.6135227 0.968026
DILUPBiCGStab:  Solving for omega, Initial residual = 6.314775e-05, Final residual = 2.560845e-06, No Iterations 1
DILUPBiCGStab:  Solving for k, Initial residual = 0.0004191009, Final residual = 4.808239e-06, No Iterations 1
ExecutionTime = 11.69 s  ClockTime = 12 s

surfaceFieldValue wallT write:
    areaAverage(plate) of T = 559.9734

surfaceFieldValue wallTriser write:
    areaAverage(riser) of T = 377.2234

End

