/*---------------------------------------------------------------------------*\
| =========                 |                                                 |
| \\      /  F ield         | OpenFOAM: The Open Source CFD Toolbox           |
|  \\    /   O peration     | Version:  2312                                  |
|   \\  /    A nd           | Website:  www.openfoam.com                      |
|    \\/     M anipulation  |                                                 |
\*---------------------------------------------------------------------------*/
Build  : _c39a0f64-20231220 OPENFOAM=2312 version=2312
Arch   : "LSB;label=32;scalar=64"
Exec   : buoyantSimpleFoam
Date   : Jul 02 2026
Time   : 08:49:59
Host   : 1cb883059315
PID    : 231
I/O    : uncollated
Case   : /case
nProcs : 1
trapFpe: Floating point exception trapping enabled (FOAM_SIGFPE).
fileModificationChecking : Monitoring run-time modified files using timeStampMaster (fileModificationSkew 5, maxFileModificationPolls 20)
allowSystemOperations : Allowing user-supplied system call operations

// * * * * * * * * * * * * * * * * * * * * * * * * * * * * * * * * * * * * * //
Create time

Create mesh for time = 3300


SIMPLE: convergence criteria
    field p_rgh	 tolerance 1e-05
    field U	 tolerance 1e-05
    field h	 tolerance 1e-05
    field "(k|omega)"	 tolerance 0.001

Reading thermophysical properties

Selecting thermodynamics package 
{
    type            heRhoThermo;
    mixture         pureMixture;
    transport       const;
    thermo          hConst;
    equationOfState perfectGas;
    specie          specie;
    energy          sensibleEnthalpy;
}

Reading field U

Reading/calculating face flux field phi

Creating turbulence model

Selecting turbulence model type RAS
Selecting RAS turbulence model kOmegaSST
Selecting patchDistMethod meshWave
RAS
{
    RASModel        kOmegaSST;
    turbulence      on;
    printCoeffs     on;
    alphaK1         0.85;
    alphaK2         1;
    alphaOmega1     0.5;
    alphaOmega2     0.856;
    gamma1          0.5555556;
    gamma2          0.44;
    beta1           0.075;
    beta2           0.0828;
    betaStar        0.09;
    a1              0.31;
    b1              1;
    c1              10;
    F3              false;
    decayControl    false;
    kInf            0;
    omegaInf        0;
}


Reading g

Reading hRef
Calculating field g.h

Reading field p_rgh

No MRF models present

Selecting radiationModel fvDOM
Selecting absorptionEmissionModel constantAbsorptionEmission
Selecting scatterModel none
Selecting sootModel none
fvDOM : Allocated 16 rays with average orientation:
	I0 : dAve : 	(0.1195698 0.6011177 2.944771e-33) : omega : 	0.7853982 : d : 	(0.1950903 0.9807853 6.123234e-17)
	I1 : dAve : 	(0.3405058 0.509603 2.944771e-33) : omega : 	0.7853982 : d : 	(0.5555702 0.8314696 6.123234e-17)
	I2 : dAve : 	(0.509603 0.3405058 2.944771e-33) : omega : 	0.7853982 : d : 	(0.8314696 0.5555702 6.123234e-17)
	I3 : dAve : 	(0.6011177 0.1195698 2.944771e-33) : omega : 	0.7853982 : d : 	(0.9807853 0.1950903 6.123234e-17)
	I4 : dAve : 	(0.6011177 -0.1195698 2.944771e-33) : omega : 	0.7853982 : d : 	(0.9807853 -0.1950903 6.123234e-17)
	I5 : dAve : 	(0.509603 -0.3405058 2.944771e-33) : omega : 	0.7853982 : d : 	(0.8314696 -0.5555702 6.123234e-17)
	I6 : dAve : 	(0.3405058 -0.509603 2.944771e-33) : omega : 	0.7853982 : d : 	(0.5555702 -0.8314696 6.123234e-17)
	I7 : dAve : 	(0.1195698 -0.6011177 2.944771e-33) : omega : 	0.7853982 : d : 	(0.1950903 -0.9807853 6.123234e-17)
	I8 : dAve : 	(-0.1195698 -0.6011177 2.944771e-33) : omega : 	0.7853982 : d : 	(-0.1950903 -0.9807853 6.123234e-17)
	I9 : dAve : 	(-0.3405058 -0.509603 2.944771e-33) : omega : 	0.7853982 : d : 	(-0.5555702 -0.8314696 6.123234e-17)
	I10 : dAve : 	(-0.509603 -0.3405058 2.944771e-33) : omega : 	0.7853982 : d : 	(-0.8314696 -0.5555702 6.123234e-17)
	I11 : dAve : 	(-0.6011177 -0.1195698 2.944771e-33) : omega : 	0.7853982 : d : 	(-0.9807853 -0.1950903 6.123234e-17)
	I12 : dAve : 	(-0.6011177 0.1195698 2.944771e-33) : omega : 	0.7853982 : d : 	(-0.9807853 0.1950903 6.123234e-17)
	I13 : dAve : 	(-0.509603 0.3405058 2.944771e-33) : omega : 	0.7853982 : d : 	(-0.8314696 0.5555702 6.123234e-17)
	I14 : dAve : 	(-0.3405058 0.509603 2.944771e-33) : omega : 	0.7853982 : d : 	(-0.5555702 0.8314696 6.123234e-17)
	I15 : dAve : 	(-0.1195698 0.6011177 2.944771e-33) : omega : 	0.7853982 : d : 	(-0.1950903 0.9807853 6.123234e-17)
Total omega : 12.56637

Creating finite volume options from "system/fvOptions"

Selecting finite volume options type limitTemperature
    Source: limitT
    - selecting all cells
    - selected 12000 cell(s) with volume 0.473422
Selecting finite volume options type limitVelocity
    Source: limitU
    - selecting all cells
    - selected 12000 cell(s) with volume 0.473422

Starting time loop

surfaceFieldValue wallT:
    operation     = areaAverage


surfaceFieldValue wallTriser:
    operation     = areaAverage


Time = 3301

DILUPBiCGStab:  Solving for h, Initial residual = 0.0001022839, Final residual = 4.200758e-09, No Iterations 1
limitTemperature limitT Lower limited 0 (0%) of cells, with min limit 280
limitTemperature limitT Upper limited 0 (0%) of cells, with max limit 1200
limitTemperature limitT Unlimited Tmin 414.8486
limitTemperature limitT Unlimited Tmax 498.1104
Radiation solver iter: 0
Selecting boundary radiation Model: lookup
Selecting boundary radiation Model: lookup
Selecting boundary radiation Model: lookup
DILUPBiCGStab:  Solving for ILambda_0_0, Initial residual = 0.2132034, Final residual = 2.223352e-15, No Iterations 1
DILUPBiCGStab:  Solving for ILambda_1_0, Initial residual = 0.4010845, Final residual = 2.924675e-15, No Iterations 1
DILUPBiCGStab:  Solving for ILambda_2_0, Initial residual = 0.5481708, Final residual = 3.314694e-15, No Iterations 1
DILUPBiCGStab:  Solving for ILambda_3_0, Initial residual = 0.6884097, Final residual = 4.207239e-15, No Iterations 1
DILUPBiCGStab:  Solving for ILambda_4_0, Initial residual = 0.6944043, Final residual = 0.06621026, No Iterations 4
DILUPBiCGStab:  Solving for ILambda_5_0, Initial residual = 0.558286, Final residual = 0.04289017, No Iterations 8
DILUPBiCGStab:  Solving for ILambda_6_0, Initial residual = 0.4228858, Final residual = 0.03352143, No Iterations 15
DILUPBiCGStab:  Solving for ILambda_7_0, Initial residual = 0.2531772, Final residual = 0.02482642, No Iterations 33
DILUPBiCGStab:  Solving for ILambda_8_0, Initial residual = 0.2274984, Final residual = 1.959744e-15, No Iterations 1
DILUPBiCGStab:  Solving for ILambda_9_0, Initial residual = 0.3973099, Final residual = 2.55205e-15, No Iterations 1
DILUPBiCGStab:  Solving for ILambda_10_0, Initial residual = 0.5471961, Final residual = 2.801918e-15, No Iterations 1
DILUPBiCGStab:  Solving for ILambda_11_0, Initial residual = 0.676023, Final residual = 2.988171e-15, No Iterations 1
DILUPBiCGStab:  Solving for ILambda_12_0, Initial residual = 0.7249037, Final residual = 0.006082926, No Iterations 5
DILUPBiCGStab:  Solving for ILambda_13_0, Initial residual = 0.6644261, Final residual = 0.06489523, No Iterations 10
DILUPBiCGStab:  Solving for ILambda_14_0, Initial residual = 0.5827416, Final residual = 0.003757477, No Iterations 17
DILUPBiCGStab:  Solving for ILambda_15_0, Initial residual = 0.4587719, Final residual = 0.03691937, No Iterations 28
Radiation solver iter: 1
DILUPBiCGStab:  Solving for ILambda_0_0, Initial residual = 0.02986602, Final residual = 1.384471e-16, No Iterations 1
DILUPBiCGStab:  Solving for ILambda_1_0, Initial residual = 0.04024288, Final residual = 1.506715e-16, No Iterations 1
DILUPBiCGStab:  Solving for ILambda_2_0, Initial residual = 0.05602332, Final residual = 2.083357e-16, No Iterations 1
DILUPBiCGStab:  Solving for ILambda_3_0, Initial residual = 0.0791124, Final residual = 3.217755e-16, No Iterations 1
DILUPBiCGStab:  Solving for ILambda_4_0, Initial residual = 0.2030981, Final residual = 0.0162869, No Iterations 3
DILUPBiCGStab:  Solving for ILambda_5_0, Initial residual = 0.1110791, Final residual = 0.0107557, No Iterations 7
DILUPBiCGStab:  Solving for ILambda_6_0, Initial residual = 0.07202389, Final residual = 0.006653815, No Iterations 10
DILUPBiCGStab:  Solving for ILambda_7_0, Initial residual = 0.04444768, Final residual = 0.001953458, No Iterations 24
DILUPBiCGStab:  Solving for ILambda_8_0, Initial residual = 0.02480304, Final residual = 1.24391e-16, No Iterations 1
DILUPBiCGStab:  Solving for ILambda_9_0, Initial residual = 0.03229664, Final residual = 1.427792e-16, No Iterations 1
DILUPBiCGStab:  Solving for ILambda_10_0, Initial residual = 0.03887827, Final residual = 1.529496e-16, No Iterations 1
DILUPBiCGStab:  Solving for ILambda_11_0, Initial residual = 0.04676865, Final residual = 1.929873e-16, No Iterations 1
DILUPBiCGStab:  Solving for ILambda_12_0, Initial residual = 0.06513238, Final residual = 0.00630248, No Iterations 4
DILUPBiCGStab:  Solving for ILambda_13_0, Initial residual = 0.1586434, Final residual = 0.0130512, No Iterations 5
DILUPBiCGStab:  Solving for ILambda_14_0, Initial residual = 0.05222218, Final residual = 0.005066832, No Iterations 11
DILUPBiCGStab:  Solving for ILambda_15_0, Initial residual = 0.09586644, Final residual = 0.008716362, No Iterations 16
Radiation solver iter: 2
DILUPBiCGStab:  Solving for ILambda_0_0, Initial residual = 0.01491073, Final residual = 3.114064e-17, No Iterations 1
DILUPBiCGStab:  Solving for ILambda_1_0, Initial residual = 0.0179309, Final residual = 2.235055e-17, No Iterations 1
DILUPBiCGStab:  Solving for ILambda_2_0, Initial residual = 0.02122526, Final residual = 2.078677e-17, No Iterations 1
DILUPBiCGStab:  Solving for ILambda_3_0, Initial residual = 0.01998889, Final residual = 2.137095e-17, No Iterations 1
DILUPBiCGStab:  Solving for ILambda_4_0, Initial residual = 0.02969492, Final residual = 0.0008296627, No Iterations 4
DILUPBiCGStab:  Solving for ILambda_5_0, Initial residual = 0.02833734, Final residual = 0.002706578, No Iterations 5
DILUPBiCGStab:  Solving for ILambda_6_0, Initial residual = 0.02207004, Final residual = 0.001651343, No Iterations 7
DILUPBiCGStab:  Solving for ILambda_7_0, Initial residual = 0.01717684, Final residual = 0.0009473261, No Iterations 12
DILUPBiCGStab:  Solving for ILambda_8_0, Initial residual = 0.009819269, Final residual = 2.246766e-17, No Iterations 1
DILUPBiCGStab:  Solving for ILambda_9_0, Initial residual = 0.01347126, Final residual = 2.851256e-17, No Iterations 1
DILUPBiCGStab:  Solving for ILambda_10_0, Initial residual = 0.0152442, Final residual = 3.644798e-17, No Iterations 1
DILUPBiCGStab:  Solving for ILambda_11_0, Initial residual = 0.01600586, Final residual = 5.08296e-17, No Iterations 1
DILUPBiCGStab:  Solving for ILambda_12_0, Initial residual = 0.02243492, Final residual = 0.0003485985, No Iterations 5
DILUPBiCGStab:  Solving for ILambda_13_0, Initial residual = 0.03299777, Final residual = 0.0006546399, No Iterations 9
DILUPBiCGStab:  Solving for ILambda_14_0, Initial residual = 0.02520985, Final residual = 0.001031524, No Iterations 13
DILUPBiCGStab:  Solving for ILambda_15_0, Initial residual = 0.03461307, Final residual = 0.003247183, No Iterations 18
Radiation solver iter: 3
DILUPBiCGStab:  Solving for ILambda_0_0, Initial residual = 0.01166081, Final residual = 1.947614e-17, No Iterations 1
DILUPBiCGStab:  Solving for ILambda_1_0, Initial residual = 0.01307903, Final residual = 1.202217e-17, No Iterations 1
DILUPBiCGStab:  Solving for ILambda_2_0, Initial residual = 0.01307176, Final residual = 9.855806e-18, No Iterations 1
DILUPBiCGStab:  Solving for ILambda_3_0, Initial residual = 0.008406877, Final residual = 8.011775e-18, No Iterations 1
DILUPBiCGStab:  Solving for ILambda_4_0, Initial residual = 0.01103895, Final residual = 0.0006817552, No Iterations 2
DILUPBiCGStab:  Solving for ILambda_5_0, Initial residual = 0.01646592, Final residual = 0.001303941, No Iterations 5
DILUPBiCGStab:  Solving for ILambda_6_0, Initial residual = 0.01567402, Final residual = 0.001246469, No Iterations 5
DILUPBiCGStab:  Solving for ILambda_7_0, Initial residual = 0.0131821, Final residual = 0.001197341, No Iterations 6
DILUPBiCGStab:  Solving for ILambda_8_0, Initial residual = 0.007363079, Final residual = 1.007102e-17, No Iterations 1
DILUPBiCGStab:  Solving for ILambda_9_0, Initial residual = 0.009827971, Final residual = 1.349672e-17, No Iterations 1
DILUPBiCGStab:  Solving for ILambda_10_0, Initial residual = 0.01016539, Final residual = 1.823879e-17, No Iterations 1
DILUPBiCGStab:  Solving for ILambda_11_0, Initial residual = 0.008579341, Final residual = 2.28683e-17, No Iterations 1
DILUPBiCGStab:  Solving for ILambda_12_0, Initial residual = 0.009941025, Final residual = 0.0004652558, No Iterations 4
DILUPBiCGStab:  Solving for ILambda_13_0, Initial residual = 0.01542045, Final residual = 0.0005504313, No Iterations 8
DILUPBiCGStab:  Solving for ILambda_14_0, Initial residual = 0.01690395, Final residual = 0.0003365234, No Iterations 13
DILUPBiCGStab:  Solving for ILambda_15_0, Initial residual = 0.02186698, Final residual = 0.002186138, No Iterations 8
Radiation solver iter: 4
DILUPBiCGStab:  Solving for ILambda_0_0, Initial residual = 0.00963314, Final residual = 1.390353e-17, No Iterations 1
DILUPBiCGStab:  Solving for ILambda_1_0, Initial residual = 0.009836825, Final residual = 8.300985e-18, No Iterations 1
DILUPBiCGStab:  Solving for ILambda_2_0, Initial residual = 0.008327641, Final residual = 5.298627e-18, No Iterations 1
DILUPBiCGStab:  Solving for ILambda_3_0, Initial residual = 0.003372454, Final residual = 2.885527e-18, No Iterations 1
DILUPBiCGStab:  Solving for ILambda_4_0, Initial residual = 0.004103286, Final residual = 0.0003586311, No Iterations 2
DILUPBiCGStab:  Solving for ILambda_5_0, Initial residual = 0.01111638, Final residual = 0.0007117431, No Iterations 5
DILUPBiCGStab:  Solving for ILambda_6_0, Initial residual = 0.01275451, Final residual = 0.001019961, No Iterations 4
DILUPBiCGStab:  Solving for ILambda_7_0, Initial residual = 0.01147993, Final residual = 0.001085795, No Iterations 5
DILUPBiCGStab:  Solving for ILambda_8_0, Initial residual = 0.006269116, Final residual = 7.893946e-18, No Iterations 1
DILUPBiCGStab:  Solving for ILambda_9_0, Initial residual = 0.008241796, Final residual = 1.045205e-17, No Iterations 1
DILUPBiCGStab:  Solving for ILambda_10_0, Initial residual = 0.007945365, Final residual = 1.230679e-17, No Iterations 1
DILUPBiCGStab:  Solving for ILambda_11_0, Initial residual = 0.005650987, Final residual = 1.537544e-17, No Iterations 1
DILUPBiCGStab:  Solving for ILambda_12_0, Initial residual = 0.006425588, Final residual = 0.000638489, No Iterations 4
DILUPBiCGStab:  Solving for ILambda_13_0, Initial residual = 0.01069421, Final residual = 0.0009929395, No Iterations 7
DILUPBiCGStab:  Solving for ILambda_14_0, Initial residual = 0.01395508, Final residual = 0.00129717, No Iterations 9
DILUPBiCGStab:  Solving for ILambda_15_0, Initial residual = 0.01794782, Final residual = 0.001659968, No Iterations 6
Radiation solver iter: 5
DILUPBiCGStab:  Solving for ILambda_0_0, Initial residual = 0.008230958, Final residual = 1.095399e-17, No Iterations 1
DILUPBiCGStab:  Solving for ILambda_1_0, Initial residual = 0.007648635, Final residual = 6.758883e-18, No Iterations 1
DILUPBiCGStab:  Solving for ILambda_2_0, Initial residual = 0.00547211, Final residual = 4.528393e-18, No Iterations 1
DILUPBiCGStab:  Solving for ILambda_3_0, Initial residual = 0.001268801, Final residual = 1.012502e-18, No Iterations 1
DILUPBiCGStab:  Solving for ILambda_4_0, Initial residual = 0.001697726, Final residual = 0.0001434981, No Iterations 2
DILUPBiCGStab:  Solving for ILambda_5_0, Initial residual = 0.007624991, Final residual = 0.0007287471, No Iterations 3
DILUPBiCGStab:  Solving for ILambda_6_0, Initial residual = 0.0105475, Final residual = 0.0004275173, No Iterations 4
DILUPBiCGStab:  Solving for ILambda_7_0, Initial residual = 0.01009076, Final residual = 0.0006653606, No Iterations 5
DILUPBiCGStab:  Solving for ILambda_8_0, Initial residual = 0.005416989, Final residual = 6.173334e-18, No Iterations 1
DILUPBiCGStab:  Solving for ILambda_9_0, Initial residual = 0.006840907, Final residual = 8.875109e-18, No Iterations 1
DILUPBiCGStab:  Solving for ILambda_10_0, Initial residual = 0.006130512, Final residual = 9.38479e-18, No Iterations 1
DILUPBiCGStab:  Solving for ILambda_11_0, Initial residual = 0.003752757, Final residual = 1.03436e-17, No Iterations 1
DILUPBiCGStab:  Solving for ILambda_12_0, Initial residual = 0.004143619, Final residual = 0.0003015255, No Iterations 3
DILUPBiCGStab:  Solving for ILambda_13_0, Initial residual = 0.007763114, Final residual = 0.0005759403, No Iterations 7
DILUPBiCGStab:  Solving for ILambda_14_0, Initial residual = 0.01175303, Final residual = 0.001038076, No Iterations 8
DILUPBiCGStab:  Solving for ILambda_15_0, Initial residual = 0.01551222, Final residual = 0.001252496, No Iterations 7
Radiation solver iter: 6
DILUPBiCGStab:  Solving for ILambda_0_0, Initial residual = 0.007120885, Final residual = 8.53648e-18, No Iterations 1
DILUPBiCGStab:  Solving for ILambda_1_0, Initial residual = 0.006008731, Final residual = 3.871389e-18, No Iterations 1
DILUPBiCGStab:  Solving for ILambda_2_0, Initial residual = 0.003607667, Final residual = 1.941144e-18, No Iterations 1
DILUPBiCGStab:  Solving for ILambda_3_0, Initial residual = 0.0004890446, Final residual = 3.948181e-19, No Iterations 1
DILUPBiCGStab:  Solving for ILambda_4_0, Initial residual = 0.0006987316, Final residual = 6.742278e-05, No Iterations 2
DILUPBiCGStab:  Solving for ILambda_5_0, Initial residual = 0.005364094, Final residual = 0.0004458261, No Iterations 3
DILUPBiCGStab:  Solving for ILambda_6_0, Initial residual = 0.008719243, Final residual = 0.0008712771, No Iterations 2
DILUPBiCGStab:  Solving for ILambda_7_0, Initial residual = 0.008727984, Final residual = 0.0007251629, No Iterations 4
DILUPBiCGStab:  Solving for ILambda_8_0, Initial residual = 0.004653989, Final residual = 4.557553e-18, No Iterations 1
DILUPBiCGStab:  Solving for ILambda_9_0, Initial residual = 0.005634394, Final residual = 5.973912e-18, No Iterations 1
DILUPBiCGStab:  Solving for ILambda_10_0, Initial residual = 0.004808981, Final residual = 6.500609e-18, No Iterations 1
DILUPBiCGStab:  Solving for ILambda_11_0, Initial residual = 0.002727261, Final residual = 7.33523e-18, No Iterations 1
DILUPBiCGStab:  Solving for ILambda_12_0, Initial residual = 0.003171343, Final residual = 0.0002331374, No Iterations 4
DILUPBiCGStab:  Solving for ILambda_13_0, Initial residual = 0.005669922, Final residual = 0.0003455768, No Iterations 9
DILUPBiCGStab:  Solving for ILambda_14_0, Initial residual = 0.009392259, Final residual = 0.000889526, No Iterations 7
DILUPBiCGStab:  Solving for ILambda_15_0, Initial residual = 0.01341417, Final residual = 0.001186592, No Iterations 5
Radiation solver iter: 7
DILUPBiCGStab:  Solving for ILambda_0_0, Initial residual = 0.006165587, Final residual = 6.514731e-18, No Iterations 1
DILUPBiCGStab:  Solving for ILambda_1_0, Initial residual = 0.004738782, Final residual = 3.312781e-18, No Iterations 1
DILUPBiCGStab:  Solving for ILambda_2_0, Initial residual = 0.002343364, Final residual = 1.34328e-18, No Iterations 1
DILUPBiCGStab:  Solving for ILambda_5_0, Initial residual = 0.003620449, Final residual = 0.0002827523, No Iterations 3
DILUPBiCGStab:  Solving for ILambda_6_0, Initial residual = 0.007242397, Final residual = 0.0006261623, No Iterations 2
DILUPBiCGStab:  Solving for ILambda_7_0, Initial residual = 0.007651952, Final residual = 0.0007280748, No Iterations 3
DILUPBiCGStab:  Solving for ILambda_8_0, Initial residual = 0.003992622, Final residual = 3.764565e-18, No Iterations 1
DILUPBiCGStab:  Solving for ILambda_9_0, Initial residual = 0.004691383, Final residual = 5.299048e-18, No Iterations 1
DILUPBiCGStab:  Solving for ILambda_10_0, Initial residual = 0.003854262, Final residual = 5.336901e-18, No Iterations 1
DILUPBiCGStab:  Solving for ILambda_11_0, Initial residual = 0.002155558, Final residual = 5.585772e-18, No Iterations 1
DILUPBiCGStab:  Solving for ILambda_12_0, Initial residual = 0.002440325, Final residual = 0.0001503146, No Iterations 4
DILUPBiCGStab:  Solving for ILambda_13_0, Initial residual = 0.004375048, Final residual = 0.0001181548, No Iterations 8
DILUPBiCGStab:  Solving for ILambda_14_0, Initial residual = 0.007454361, Final residual = 0.000373096, No Iterations 9
DILUPBiCGStab:  Solving for ILambda_15_0, Initial residual = 0.0115229, Final residual = 0.00109684, No Iterations 5
Radiation solver iter: 8
DILUPBiCGStab:  Solving for ILambda_0_0, Initial residual = 0.005327205, Final residual = 5.441783e-18, No Iterations 1
DILUPBiCGStab:  Solving for ILambda_1_0, Initial residual = 0.003734244, Final residual = 2.371987e-18, No Iterations 1
DILUPBiCGStab:  Solving for ILambda_2_0, Initial residual = 0.00148765, Final residual = 8.579753e-19, No Iterations 1
DILUPBiCGStab:  Solving for ILambda_5_0, Initial residual = 0.002366764, Final residual = 0.0002081872, No Iterations 2
DILUPBiCGStab:  Solving for ILambda_6_0, Initial residual = 0.005928146, Final residual = 0.00047627, No Iterations 2
DILUPBiCGStab:  Solving for ILambda_7_0, Initial residual = 0.006696721, Final residual = 0.0004252698, No Iterations 4
DILUPBiCGStab:  Solving for ILambda_8_0, Initial residual = 0.003424499, Final residual = 2.983622e-18, No Iterations 1
DILUPBiCGStab:  Solving for ILambda_9_0, Initial residual = 0.003978399, Final residual = 3.665504e-18, No Iterations 1
DILUPBiCGStab:  Solving for ILambda_10_0, Initial residual = 0.003160323, Final residual = 4.009396e-18, No Iterations 1
DILUPBiCGStab:  Solving for ILambda_11_0, Initial residual = 0.001782952, Final residual = 4.621761e-18, No Iterations 1
DILUPBiCGStab:  Solving for ILambda_12_0, Initial residual = 0.001997329, Final residual = 1.386873e-05, No Iterations 5
DILUPBiCGStab:  Solving for ILambda_13_0, Initial residual = 0.003638423, Final residual = 0.0001009737, No Iterations 8
DILUPBiCGStab:  Solving for ILambda_14_0, Initial residual = 0.005854334, Final residual = 0.0001963391, No Iterations 11
DILUPBiCGStab:  Solving for ILambda_15_0, Initial residual = 0.009894711, Final residual = 0.0008046801, No Iterations 6
Radiation solver iter: 9
DILUPBiCGStab:  Solving for ILambda_0_0, Initial residual = 0.004599755, Final residual = 4.671828e-18, No Iterations 1
DILUPBiCGStab:  Solving for ILambda_1_0, Initial residual = 0.002922367, Final residual = 1.706041e-18, No Iterations 1
DILUPBiCGStab:  Solving for ILambda_2_0, Initial residual = 0.0009199744, Final residual = 4.441864e-19, No Iterations 1
DILUPBiCGStab:  Solving for ILambda_5_0, Initial residual = 0.001482464, Final residual = 0.0001382556, No Iterations 2
DILUPBiCGStab:  Solving for ILambda_6_0, Initial residual = 0.004785467, Final residual = 0.0003499208, No Iterations 2
DILUPBiCGStab:  Solving for ILambda_7_0, Initial residual = 0.00578173, Final residual = 0.0004358863, No Iterations 3
DILUPBiCGStab:  Solving for ILambda_8_0, Initial residual = 0.002938953, Final residual = 2.391326e-18, No Iterations 1
DILUPBiCGStab:  Solving for ILambda_9_0, Initial residual = 0.003456694, Final residual = 2.905338e-18, No Iterations 1
DILUPBiCGStab:  Solving for ILambda_10_0, Initial residual = 0.002595656, Final residual = 3.222463e-18, No Iterations 1
DILUPBiCGStab:  Solving for ILambda_11_0, Initial residual = 0.001471569, Final residual = 3.751476e-18, No Iterations 1
DILUPBiCGStab:  Solving for ILambda_12_0, Initial residual = 0.001677735, Final residual = 0.0001026474, No Iterations 4
DILUPBiCGStab:  Solving for ILambda_13_0, Initial residual = 0.00312911, Final residual = 0.0001464966, No Iterations 8
DILUPBiCGStab:  Solving for ILambda_14_0, Initial residual = 0.00468307, Final residual = 0.0004678906, No Iterations 5
DILUPBiCGStab:  Solving for ILambda_15_0, Initial residual = 0.008343059, Final residual = 0.0006104954, No Iterations 5
Radiation solver iter: 10
DILUPBiCGStab:  Solving for ILambda_0_0, Initial residual = 0.003950584, Final residual = 3.624984e-18, No Iterations 1
DILUPBiCGStab:  Solving for ILambda_1_0, Initial residual = 0.002272566, Final residual = 1.150239e-18, No Iterations 1
DILUPBiCGStab:  Solving for ILambda_5_0, Initial residual = 0.0008939434, Final residual = 6.26992e-05, No Iterations 2
DILUPBiCGStab:  Solving for ILambda_6_0, Initial residual = 0.003776067, Final residual = 0.0002467115, No Iterations 2
DILUPBiCGStab:  Solving for ILambda_7_0, Initial residual = 0.005012448, Final residual = 0.0004205534, No Iterations 3
DILUPBiCGStab:  Solving for ILambda_8_0, Initial residual = 0.002527079, Final residual = 1.760117e-18, No Iterations 1
DILUPBiCGStab:  Solving for ILambda_9_0, Initial residual = 0.003020781, Final residual = 2.694178e-18, No Iterations 1
DILUPBiCGStab:  Solving for ILambda_10_0, Initial residual = 0.00209701, Final residual = 2.610545e-18, No Iterations 1
DILUPBiCGStab:  Solving for ILambda_11_0, Initial residual = 0.001161735, Final residual = 3.162122e-18, No Iterations 1
DILUPBiCGStab:  Solving for ILambda_12_0, Initial residual = 0.001365129, Final residual = 6.106064e-05, No Iterations 4
DILUPBiCGStab:  Solving for ILambda_13_0, Initial residual = 0.00265386, Final residual = 0.0001534036, No Iterations 8
DILUPBiCGStab:  Solving for ILambda_14_0, Initial residual = 0.003959371, Final residual = 0.0002122546, No Iterations 7
DILUPBiCGStab:  Solving for ILambda_15_0, Initial residual = 0.00706872, Final residual = 0.0006791138, No Iterations 4
Radiation solver iter: 11
DILUPBiCGStab:  Solving for ILambda_0_0, Initial residual = 0.003383376, Final residual = 3.334246e-18, No Iterations 1
DILUPBiCGStab:  Solving for ILambda_1_0, Initial residual = 0.001751988, Final residual = 7.84541e-19, No Iterations 1
DILUPBiCGStab:  Solving for ILambda_6_0, Initial residual = 0.002924213, Final residual = 0.0001691603, No Iterations 2
DILUPBiCGStab:  Solving for ILambda_7_0, Initial residual = 0.004322689, Final residual = 0.0002193957, No Iterations 4
DILUPBiCGStab:  Solving for ILambda_8_0, Initial residual = 0.002176301, Final residual = 1.505449e-18, No Iterations 1
DILUPBiCGStab:  Solving for ILambda_9_0, Initial residual = 0.002623804, Final residual = 2.170588e-18, No Iterations 1
DILUPBiCGStab:  Solving for ILambda_10_0, Initial residual = 0.001666686, Final residual = 2.158525e-18, No Iterations 1
DILUPBiCGStab:  Solving for ILambda_11_0, Initial residual = 0.0008826434, Final residual = 2.2602e-18, No Iterations 1
DILUPBiCGStab:  Solving for ILambda_12_0, Initial residual = 0.001007851, Final residual = 4.719344e-05, No Iterations 4
DILUPBiCGStab:  Solving for ILambda_13_0, Initial residual = 0.002150481, Final residual = 7.628341e-05, No Iterations 8
DILUPBiCGStab:  Solving for ILambda_14_0, Initial residual = 0.003359658, Final residual = 0.0003148964, No Iterations 8
DILUPBiCGStab:  Solving for ILambda_15_0, Initial residual = 0.006085712, Final residual = 0.0001568302, No Iterations 6
Radiation solver iter: 12
DILUPBiCGStab:  Solving for ILambda_0_0, Initial residual = 0.002883609, Final residual = 2.302793e-18, No Iterations 1
DILUPBiCGStab:  Solving for ILambda_1_0, Initial residual = 0.001334736, Final residual = 5.436373e-19, No Iterations 1
DILUPBiCGStab:  Solving for ILambda_6_0, Initial residual = 0.002231832, Final residual = 0.0002116863, No Iterations 2
DILUPBiCGStab:  Solving for ILambda_7_0, Initial residual = 0.003658416, Final residual = 0.0003057981, No Iterations 2
DILUPBiCGStab:  Solving for ILambda_8_0, Initial residual = 0.001885283, Final residual = 1.410902e-18, No Iterations 1
DILUPBiCGStab:  Solving for ILambda_9_0, Initial residual = 0.002260956, Final residual = 1.976303e-18, No Iterations 1
DILUPBiCGStab:  Solving for ILambda_10_0, Initial residual = 0.001312233, Final residual = 1.675483e-18, No Iterations 1
DILUPBiCGStab:  Solving for ILambda_12_0, Initial residual = 0.0007616667, Final residual = 3.475733e-05, No Iterations 4
DILUPBiCGStab:  Solving for ILambda_13_0, Initial residual = 0.001710767, Final residual = 0.0001514937, No Iterations 6
DILUPBiCGStab:  Solving for ILambda_14_0, Initial residual = 0.002914344, Final residual = 0.0002575101, No Iterations 6
DILUPBiCGStab:  Solving for ILambda_15_0, Initial residual = 0.005120664, Final residual = 0.0002595407, No Iterations 4
Radiation solver iter: 13
DILUPBiCGStab:  Solving for ILambda_0_0, Initial residual = 0.002447576, Final residual = 1.883125e-18, No Iterations 1
DILUPBiCGStab:  Solving for ILambda_1_0, Initial residual = 0.001003216, Final residual = 4.432792e-19, No Iterations 1
DILUPBiCGStab:  Solving for ILambda_6_0, Initial residual = 0.001692346, Final residual = 0.0001488182, No Iterations 2
DILUPBiCGStab:  Solving for ILambda_7_0, Initial residual = 0.003135237, Final residual = 0.0002987689, No Iterations 2
DILUPBiCGStab:  Solving for ILambda_8_0, Initial residual = 0.001640598, Final residual = 1.198391e-18, No Iterations 1
DILUPBiCGStab:  Solving for ILambda_9_0, Initial residual = 0.001925315, Final residual = 1.513218e-18, No Iterations 1
DILUPBiCGStab:  Solving for ILambda_10_0, Initial residual = 0.00103546, Final residual = 1.290214e-18, No Iterations 1
DILUPBiCGStab:  Solving for ILambda_13_0, Initial residual = 0.00138561, Final residual = 0.0001276074, No Iterations 7
DILUPBiCGStab:  Solving for ILambda_14_0, Initial residual = 0.002492067, Final residual = 0.0001741707, No Iterations 6
DILUPBiCGStab:  Solving for ILambda_15_0, Initial residual = 0.004438569, Final residual = 0.0003423352, No Iterations 3
Radiation solver iter: 14
DILUPBiCGStab:  Solving for ILambda_0_0, Initial residual = 0.002067613, Final residual = 1.496278e-18, No Iterations 1
DILUPBiCGStab:  Solving for ILambda_1_0, Initial residual = 0.0007430612, Final residual = 3.00382e-19, No Iterations 1
DILUPBiCGStab:  Solving for ILambda_6_0, Initial residual = 0.001263017, Final residual = 0.0001004218, No Iterations 2
DILUPBiCGStab:  Solving for ILambda_7_0, Initial residual = 0.002675336, Final residual = 0.0002477411, No Iterations 2
DILUPBiCGStab:  Solving for ILambda_8_0, Initial residual = 0.001430101, Final residual = 1.021207e-18, No Iterations 1
DILUPBiCGStab:  Solving for ILambda_9_0, Initial residual = 0.001623326, Final residual = 1.374967e-18, No Iterations 1
DILUPBiCGStab:  Solving for ILambda_10_0, Initial residual = 0.0008171609, Final residual = 1.033011e-18, No Iterations 1
DILUPBiCGStab:  Solving for ILambda_13_0, Initial residual = 0.00107166, Final residual = 8.900573e-05, No Iterations 6
DILUPBiCGStab:  Solving for ILambda_14_0, Initial residual = 0.002107669, Final residual = 0.0001968086, No Iterations 4
DILUPBiCGStab:  Solving for ILambda_15_0, Initial residual = 0.003862785, Final residual = 0.0002081381, No Iterations 4
GAMG:  Solving for p_rgh, Initial residual = 0.03973933, Final residual = 7.209867e-05, No Iterations 2
limitVelocity limitU Limited 0 (0%) of cells, with max limit 5
time step continuity errors : sum local = 0.0003826336, global = 7.92245e-18, cumulative = 1.333248e-15
rho min/max : 0.5344774 0.9592594
DILUPBiCGStab:  Solving for omega, Initial residual = 0.0002531241, Final residual = 8.635816e-06, No Iterations 1
DILUPBiCGStab:  Solving for k, Initial residual = 0.0007000582, Final residual = 3.967842e-05, No Iterations 1
ExecutionTime = 0.61 s  ClockTime = 1 s

Time = 3302

DILUPBiCGStab:  Solving for h, Initial residual = 9.827341e-05, Final residual = 3.370235e-09, No Iterations 1
limitTemperature limitT Lower limited 0 (0%) of cells, with min limit 280
limitTemperature limitT Upper limited 0 (0%) of cells, with max limit 1200
limitTemperature limitT Unlimited Tmin 414.8491
limitTemperature limitT Unlimited Tmax 498.2362
GAMG:  Solving for p_rgh, Initial residual = 0.03115354, Final residual = 5.709845e-05, No Iterations 2
limitVelocity limitU Limited 0 (0%) of cells, with max limit 5
time step continuity errors : sum local = 0.0003268764, global = 2.000651e-17, cumulative = 1.353255e-15
rho min/max : 0.5743576 0.9571925
DILUPBiCGStab:  Solving for omega, Initial residual = 0.0002267453, Final residual = 8.482149e-06, No Iterations 1
DILUPBiCGStab:  Solving for k, Initial residual = 0.0006764039, Final residual = 3.831205e-05, No Iterations 1
ExecutionTime = 0.62 s  ClockTime = 1 s

Time = 3303

DILUPBiCGStab:  Solving for h, Initial residual = 8.751224e-05, Final residual = 1.983636e-09, No Iterations 1
limitTemperature limitT Lower limited 0 (0%) of cells, with min limit 280
limitTemperature limitT Upper limited 0 (0%) of cells, with max limit 1200
limitTemperature limitT Unlimited Tmin 414.8518
limitTemperature limitT Unlimited Tmax 498.2858
Radiation solver iter: 0
DILUPBiCGStab:  Solving for ILambda_0_0, Initial residual = 0.2034903, Final residual = 2.057885e-15, No Iterations 1
DILUPBiCGStab:  Solving for ILambda_1_0, Initial residual = 0.3827165, Final residual = 2.693453e-15, No Iterations 1
DILUPBiCGStab:  Solving for ILambda_2_0, Initial residual = 0.5368659, Final residual = 3.091643e-15, No Iterations 1
DILUPBiCGStab:  Solving for ILambda_3_0, Initial residual = 0.6940654, Final residual = 3.726959e-15, No Iterations 1
DILUPBiCGStab:  Solving for ILambda_4_0, Initial residual = 0.7015432, Final residual = 0.02989414, No Iterations 4
DILUPBiCGStab:  Solving for ILambda_5_0, Initial residual = 0.5580126, Final residual = 0.02614022, No Iterations 10
DILUPBiCGStab:  Solving for ILambda_6_0, Initial residual = 0.4123472, Final residual = 0.03458504, No Iterations 17
DILUPBiCGStab:  Solving for ILambda_7_0, Initial residual = 0.2330113, Final residual = 0.008881017, No Iterations 31
DILUPBiCGStab:  Solving for ILambda_8_0, Initial residual = 0.210418, Final residual = 1.735078e-15, No Iterations 1
DILUPBiCGStab:  Solving for ILambda_9_0, Initial residual = 0.3644287, Final residual = 2.316416e-15, No Iterations 1
DILUPBiCGStab:  Solving for ILambda_10_0, Initial residual = 0.4918777, Final residual = 2.709161e-15, No Iterations 1
DILUPBiCGStab:  Solving for ILambda_11_0, Initial residual = 0.6362067, Final residual = 3.061275e-15, No Iterations 1
DILUPBiCGStab:  Solving for ILambda_12_0, Initial residual = 0.7021305, Final residual = 0.051724, No Iterations 4
DILUPBiCGStab:  Solving for ILambda_13_0, Initial residual = 0.6221959, Final residual = 0.01632177, No Iterations 12
DILUPBiCGStab:  Solving for ILambda_14_0, Initial residual = 0.5359846, Final residual = 0.0125818, No Iterations 20
DILUPBiCGStab:  Solving for ILambda_15_0, Initial residual = 0.4520132, Final residual = 0.04312575, No Iterations 31
Radiation solver iter: 1
DILUPBiCGStab:  Solving for ILambda_0_0, Initial residual = 0.04447615, Final residual = 1.850158e-16, No Iterations 1
DILUPBiCGStab:  Solving for ILambda_1_0, Initial residual = 0.06148829, Final residual = 1.975941e-16, No Iterations 1
DILUPBiCGStab:  Solving for ILambda_2_0, Initial residual = 0.08266311, Final residual = 2.44811e-16, No Iterations 1
DILUPBiCGStab:  Solving for ILambda_3_0, Initial residual = 0.1043679, Final residual = 3.620055e-16, No Iterations 1
DILUPBiCGStab:  Solving for ILambda_4_0, Initial residual = 0.1730447, Final residual = 0.01644996, No Iterations 3
DILUPBiCGStab:  Solving for ILambda_5_0, Initial residual = 0.1314656, Final residual = 0.003548346, No Iterations 9
DILUPBiCGStab:  Solving for ILambda_6_0, Initial residual = 0.1151691, Final residual = 0.008905623, No Iterations 12
DILUPBiCGStab:  Solving for ILambda_7_0, Initial residual = 0.0448829, Final residual = 0.004198792, No Iterations 18
DILUPBiCGStab:  Solving for ILambda_8_0, Initial residual = 0.01859248, Final residual = 7.632419e-17, No Iterations 1
DILUPBiCGStab:  Solving for ILambda_9_0, Initial residual = 0.02241984, Final residual = 8.672416e-17, No Iterations 1
DILUPBiCGStab:  Solving for ILambda_10_0, Initial residual = 0.02788347, Final residual = 1.009866e-16, No Iterations 1
DILUPBiCGStab:  Solving for ILambda_11_0, Initial residual = 0.03292757, Final residual = 1.368635e-16, No Iterations 1
DILUPBiCGStab:  Solving for ILambda_12_0, Initial residual = 0.1302563, Final residual = 0.01126787, No Iterations 2
DILUPBiCGStab:  Solving for ILambda_13_0, Initial residual = 0.06465374, Final residual = 0.005697357, No Iterations 7
DILUPBiCGStab:  Solving for ILambda_14_0, Initial residual = 0.05505878, Final residual = 0.0003816631, No Iterations 13
DILUPBiCGStab:  Solving for ILambda_15_0, Initial residual = 0.09582006, Final residual = 0.009305797, No Iterations 15
Radiation solver iter: 2
DILUPBiCGStab:  Solving for ILambda_0_0, Initial residual = 0.02458485, Final residual = 4.839354e-17, No Iterations 1
DILUPBiCGStab:  Solving for ILambda_1_0, Initial residual = 0.033207, Final residual = 3.789067e-17, No Iterations 1
DILUPBiCGStab:  Solving for ILambda_2_0, Initial residual = 0.038518, Final residual = 3.451038e-17, No Iterations 1
DILUPBiCGStab:  Solving for ILambda_3_0, Initial residual = 0.03241045, Final residual = 3.120893e-17, No Iterations 1
DILUPBiCGStab:  Solving for ILambda_4_0, Initial residual = 0.05063627, Final residual = 0.004829491, No Iterations 2
DILUPBiCGStab:  Solving for ILambda_5_0, Initial residual = 0.04654791, Final residual = 0.002965705, No Iterations 6
DILUPBiCGStab:  Solving for ILambda_6_0, Initial residual = 0.04963063, Final residual = 0.0006860701, No Iterations 9
DILUPBiCGStab:  Solving for ILambda_7_0, Initial residual = 0.025639, Final residual = 0.001930426, No Iterations 11
DILUPBiCGStab:  Solving for ILambda_8_0, Initial residual = 0.008318801, Final residual = 1.382712e-17, No Iterations 1
DILUPBiCGStab:  Solving for ILambda_9_0, Initial residual = 0.01082816, Final residual = 1.964109e-17, No Iterations 1
DILUPBiCGStab:  Solving for ILambda_10_0, Initial residual = 0.01312257, Final residual = 2.920801e-17, No Iterations 1
DILUPBiCGStab:  Solving for ILambda_11_0, Initial residual = 0.01330713, Final residual = 4.041394e-17, No Iterations 1
DILUPBiCGStab:  Solving for ILambda_12_0, Initial residual = 0.02891902, Final residual = 0.001843126, No Iterations 3
DILUPBiCGStab:  Solving for ILambda_13_0, Initial residual = 0.02286026, Final residual = 0.002079166, No Iterations 8
DILUPBiCGStab:  Solving for ILambda_14_0, Initial residual = 0.02171681, Final residual = 0.001620522, No Iterations 12
DILUPBiCGStab:  Solving for ILambda_15_0, Initial residual = 0.03426633, Final residual = 0.003395679, No Iterations 15
Radiation solver iter: 3
DILUPBiCGStab:  Solving for ILambda_0_0, Initial residual = 0.02000412, Final residual = 3.125047e-17, No Iterations 1
DILUPBiCGStab:  Solving for ILambda_1_0, Initial residual = 0.02496941, Final residual = 2.779042e-17, No Iterations 1
DILUPBiCGStab:  Solving for ILambda_2_0, Initial residual = 0.02491755, Final residual = 1.74035e-17, No Iterations 1
DILUPBiCGStab:  Solving for ILambda_3_0, Initial residual = 0.0145208, Final residual = 1.205343e-17, No Iterations 1
DILUPBiCGStab:  Solving for ILambda_4_0, Initial residual = 0.01929533, Final residual = 0.000947249, No Iterations 2
DILUPBiCGStab:  Solving for ILambda_5_0, Initial residual = 0.03023682, Final residual = 0.001251494, No Iterations 5
DILUPBiCGStab:  Solving for ILambda_6_0, Initial residual = 0.02871689, Final residual = 0.002314861, No Iterations 4
DILUPBiCGStab:  Solving for ILambda_7_0, Initial residual = 0.0197878, Final residual = 0.001916086, No Iterations 7
DILUPBiCGStab:  Solving for ILambda_8_0, Initial residual = 0.006782958, Final residual = 9.2783e-18, No Iterations 1
DILUPBiCGStab:  Solving for ILambda_9_0, Initial residual = 0.008963737, Final residual = 1.251087e-17, No Iterations 1
DILUPBiCGStab:  Solving for ILambda_10_0, Initial residual = 0.009872814, Final residual = 1.719539e-17, No Iterations 1
DILUPBiCGStab:  Solving for ILambda_11_0, Initial residual = 0.008445498, Final residual = 2.212106e-17, No Iterations 1
DILUPBiCGStab:  Solving for ILambda_12_0, Initial residual = 0.01134324, Final residual = 6.591699e-05, No Iterations 5
DILUPBiCGStab:  Solving for ILambda_13_0, Initial residual = 0.01496273, Final residual = 0.0007710842, No Iterations 8
DILUPBiCGStab:  Solving for ILambda_14_0, Initial residual = 0.01731236, Final residual = 0.00153071, No Iterations 9
DILUPBiCGStab:  Solving for ILambda_15_0, Initial residual = 0.02291596, Final residual = 0.002087984, No Iterations 9
Radiation solver iter: 4
DILUPBiCGStab:  Solving for ILambda_0_0, Initial residual = 0.01730681, Final residual = 2.413378e-17, No Iterations 1
DILUPBiCGStab:  Solving for ILambda_1_0, Initial residual = 0.01922505, Final residual = 1.648768e-17, No Iterations 1
DILUPBiCGStab:  Solving for ILambda_2_0, Initial residual = 0.01657429, Final residual = 1.047562e-17, No Iterations 1
DILUPBiCGStab:  Solving for ILambda_3_0, Initial residual = 0.006084603, Final residual = 3.903468e-18, No Iterations 1
DILUPBiCGStab:  Solving for ILambda_4_0, Initial residual = 0.008429975, Final residual = 0.0006740415, No Iterations 2
DILUPBiCGStab:  Solving for ILambda_5_0, Initial residual = 0.0220248, Final residual = 0.0008368234, No Iterations 4
DILUPBiCGStab:  Solving for ILambda_6_0, Initial residual = 0.02213518, Final residual = 0.001766835, No Iterations 4
DILUPBiCGStab:  Solving for ILambda_7_0, Initial residual = 0.01695561, Final residual = 0.001055428, No Iterations 6
DILUPBiCGStab:  Solving for ILambda_8_0, Initial residual = 0.005785923, Final residual = 7.066587e-18, No Iterations 1
DILUPBiCGStab:  Solving for ILambda_9_0, Initial residual = 0.007489603, Final residual = 9.69508e-18, No Iterations 1
DILUPBiCGStab:  Solving for ILambda_10_0, Initial residual = 0.007300238, Final residual = 1.223674e-17, No Iterations 1
DILUPBiCGStab:  Solving for ILambda_11_0, Initial residual = 0.005626263, Final residual = 1.474596e-17, No Iterations 1
DILUPBiCGStab:  Solving for ILambda_12_0, Initial residual = 0.006421319, Final residual = 0.0004116906, No Iterations 4
DILUPBiCGStab:  Solving for ILambda_13_0, Initial residual = 0.01059748, Final residual = 0.0004745714, No Iterations 8
DILUPBiCGStab:  Solving for ILambda_14_0, Initial residual = 0.01495875, Final residual = 0.001358006, No Iterations 8
DILUPBiCGStab:  Solving for ILambda_15_0, Initial residual = 0.0192354, Final residual = 0.001865526, No Iterations 6
Radiation solver iter: 5
DILUPBiCGStab:  Solving for ILambda_0_0, Initial residual = 0.01523492, Final residual = 1.883543e-17, No Iterations 1
DILUPBiCGStab:  Solving for ILambda_1_0, Initial residual = 0.01521382, Final residual = 1.155604e-17, No Iterations 1
DILUPBiCGStab:  Solving for ILambda_2_0, Initial residual = 0.01118727, Final residual = 7.472823e-18, No Iterations 1
DILUPBiCGStab:  Solving for ILambda_3_0, Initial residual = 0.002332987, Final residual = 1.781964e-18, No Iterations 1
DILUPBiCGStab:  Solving for ILambda_4_0, Initial residual = 0.003581362, Final residual = 0.0002452677, No Iterations 2
DILUPBiCGStab:  Solving for ILambda_5_0, Initial residual = 0.01627906, Final residual = 0.001193128, No Iterations 3
DILUPBiCGStab:  Solving for ILambda_6_0, Initial residual = 0.01805638, Final residual = 0.001351991, No Iterations 3
DILUPBiCGStab:  Solving for ILambda_7_0, Initial residual = 0.01458708, Final residual = 0.0006537427, No Iterations 6
DILUPBiCGStab:  Solving for ILambda_8_0, Initial residual = 0.005050545, Final residual = 5.736443e-18, No Iterations 1
DILUPBiCGStab:  Solving for ILambda_9_0, Initial residual = 0.006251095, Final residual = 7.730012e-18, No Iterations 1
DILUPBiCGStab:  Solving for ILambda_10_0, Initial residual = 0.005377346, Final residual = 8.481601e-18, No Iterations 1
DILUPBiCGStab:  Solving for ILambda_11_0, Initial residual = 0.003932256, Final residual = 1.002767e-17, No Iterations 1
DILUPBiCGStab:  Solving for ILambda_12_0, Initial residual = 0.004425022, Final residual = 0.0001814728, No Iterations 4
DILUPBiCGStab:  Solving for ILambda_13_0, Initial residual = 0.007693132, Final residual = 0.0005810663, No Iterations 7
DILUPBiCGStab:  Solving for ILambda_14_0, Initial residual = 0.01231971, Final residual = 0.001144098, No Iterations 6
DILUPBiCGStab:  Solving for ILambda_15_0, Initial residual = 0.01669112, Final residual = 0.001457476, No Iterations 6
Radiation solver iter: 6
DILUPBiCGStab:  Solving for ILambda_0_0, Initial residual = 0.0135286, Final residual = 1.648145e-17, No Iterations 1
DILUPBiCGStab:  Solving for ILambda_1_0, Initial residual = 0.01210308, Final residual = 8.898258e-18, No Iterations 1
DILUPBiCGStab:  Solving for ILambda_2_0, Initial residual = 0.007549974, Final residual = 4.393347e-18, No Iterations 1
DILUPBiCGStab:  Solving for ILambda_3_0, Initial residual = 0.0008778979, Final residual = 6.235723e-19, No Iterations 1
DILUPBiCGStab:  Solving for ILambda_4_0, Initial residual = 0.001384686, Final residual = 0.0001022793, No Iterations 2
DILUPBiCGStab:  Solving for ILambda_5_0, Initial residual = 0.01179086, Final residual = 0.0009170054, No Iterations 3
DILUPBiCGStab:  Solving for ILambda_6_0, Initial residual = 0.01481189, Final residual = 0.0008155712, No Iterations 3
DILUPBiCGStab:  Solving for ILambda_7_0, Initial residual = 0.01266906, Final residual = 0.00113921, No Iterations 4
DILUPBiCGStab:  Solving for ILambda_8_0, Initial residual = 0.004367999, Final residual = 4.165837e-18, No Iterations 1
DILUPBiCGStab:  Solving for ILambda_9_0, Initial residual = 0.005119246, Final residual = 5.668371e-18, No Iterations 1
DILUPBiCGStab:  Solving for ILambda_10_0, Initial residual = 0.004112315, Final residual = 5.85578e-18, No Iterations 1
DILUPBiCGStab:  Solving for ILambda_11_0, Initial residual = 0.002993794, Final residual = 7.537089e-18, No Iterations 1
DILUPBiCGStab:  Solving for ILambda_12_0, Initial residual = 0.00330139, Final residual = 0.0001256308, No Iterations 4
DILUPBiCGStab:  Solving for ILambda_13_0, Initial residual = 0.006034723, Final residual = 0.0005007513, No Iterations 8
DILUPBiCGStab:  Solving for ILambda_14_0, Initial residual = 0.01010257, Final residual = 0.0008915088, No Iterations 7
DILUPBiCGStab:  Solving for ILambda_15_0, Initial residual = 0.01475727, Final residual = 0.001231174, No Iterations 6
Radiation solver iter: 7
DILUPBiCGStab:  Solving for ILambda_0_0, Initial residual = 0.0120169, Final residual = 1.345937e-17, No Iterations 1
DILUPBiCGStab:  Solving for ILambda_1_0, Initial residual = 0.009631898, Final residual = 6.450532e-18, No Iterations 1
DILUPBiCGStab:  Solving for ILambda_2_0, Initial residual = 0.004987246, Final residual = 2.437871e-18, No Iterations 1
DILUPBiCGStab:  Solving for ILambda_4_0, Initial residual = 0.0005293428, Final residual = 5.459395e-05, No Iterations 2
DILUPBiCGStab:  Solving for ILambda_5_0, Initial residual = 0.008388781, Final residual = 0.0008050626, No Iterations 2
DILUPBiCGStab:  Solving for ILambda_6_0, Initial residual = 0.01217984, Final residual = 0.001041676, No Iterations 2
DILUPBiCGStab:  Solving for ILambda_7_0, Initial residual = 0.01119187, Final residual = 0.001095287, No Iterations 4
DILUPBiCGStab:  Solving for ILambda_8_0, Initial residual = 0.003755257, Final residual = 3.571087e-18, No Iterations 1
DILUPBiCGStab:  Solving for ILambda_9_0, Initial residual = 0.004150174, Final residual = 4.321601e-18, No Iterations 1
DILUPBiCGStab:  Solving for ILambda_10_0, Initial residual = 0.003286808, Final residual = 4.632583e-18, No Iterations 1
DILUPBiCGStab:  Solving for ILambda_11_0, Initial residual = 0.002357827, Final residual = 5.960332e-18, No Iterations 1
DILUPBiCGStab:  Solving for ILambda_12_0, Initial residual = 0.002625155, Final residual = 0.0001178759, No Iterations 4
DILUPBiCGStab:  Solving for ILambda_13_0, Initial residual = 0.004852799, Final residual = 0.000152601, No Iterations 8
DILUPBiCGStab:  Solving for ILambda_14_0, Initial residual = 0.008193042, Final residual = 0.0007397666, No Iterations 5
DILUPBiCGStab:  Solving for ILambda_15_0, Initial residual = 0.01276335, Final residual = 0.001153978, No Iterations 5
Radiation solver iter: 8
DILUPBiCGStab:  Solving for ILambda_0_0, Initial residual = 0.01058952, Final residual = 1.102054e-17, No Iterations 1
DILUPBiCGStab:  Solving for ILambda_1_0, Initial residual = 0.007634903, Final residual = 5.459096e-18, No Iterations 1
DILUPBiCGStab:  Solving for ILambda_2_0, Initial residual = 0.003201496, Final residual = 1.999019e-18, No Iterations 1
DILUPBiCGStab:  Solving for ILambda_5_0, Initial residual = 0.005696801, Final residual = 0.0004674685, No Iterations 2
DILUPBiCGStab:  Solving for ILambda_6_0, Initial residual = 0.01007707, Final residual = 0.0007068318, No Iterations 2
DILUPBiCGStab:  Solving for ILambda_7_0, Initial residual = 0.009812744, Final residual = 0.0006129225, No Iterations 4
DILUPBiCGStab:  Solving for ILambda_8_0, Initial residual = 0.003212841, Final residual = 3.117624e-18, No Iterations 1
DILUPBiCGStab:  Solving for ILambda_9_0, Initial residual = 0.003416844, Final residual = 3.189656e-18, No Iterations 1
DILUPBiCGStab:  Solving for ILambda_10_0, Initial residual = 0.002792457, Final residual = 3.640412e-18, No Iterations 1
DILUPBiCGStab:  Solving for ILambda_11_0, Initial residual = 0.001956828, Final residual = 4.961516e-18, No Iterations 1
DILUPBiCGStab:  Solving for ILambda_12_0, Initial residual = 0.002200605, Final residual = 8.625318e-05, No Iterations 4
DILUPBiCGStab:  Solving for ILambda_13_0, Initial residual = 0.00403445, Final residual = 0.0002095489, No Iterations 8
DILUPBiCGStab:  Solving for ILambda_14_0, Initial residual = 0.006604502, Final residual = 0.0005830068, No Iterations 6
DILUPBiCGStab:  Solving for ILambda_15_0, Initial residual = 0.01103916, Final residual = 0.0009960798, No Iterations 6
Radiation solver iter: 9
DILUPBiCGStab:  Solving for ILambda_0_0, Initial residual = 0.009297412, Final residual = 8.959835e-18, No Iterations 1
DILUPBiCGStab:  Solving for ILambda_1_0, Initial residual = 0.005994353, Final residual = 2.967917e-18, No Iterations 1
DILUPBiCGStab:  Solving for ILambda_2_0, Initial residual = 0.001994578, Final residual = 8.684771e-19, No Iterations 1
DILUPBiCGStab:  Solving for ILambda_5_0, Initial residual = 0.003676194, Final residual = 0.0002615758, No Iterations 2
DILUPBiCGStab:  Solving for ILambda_6_0, Initial residual = 0.008228228, Final residual = 0.0005462938, No Iterations 3
DILUPBiCGStab:  Solving for ILambda_7_0, Initial residual = 0.008517206, Final residual = 0.0007895744, No Iterations 3
DILUPBiCGStab:  Solving for ILambda_8_0, Initial residual = 0.002748158, Final residual = 2.212376e-18, No Iterations 1
DILUPBiCGStab:  Solving for ILambda_9_0, Initial residual = 0.002858501, Final residual = 2.561138e-18, No Iterations 1
DILUPBiCGStab:  Solving for ILambda_10_0, Initial residual = 0.002419479, Final residual = 3.247606e-18, No Iterations 1
DILUPBiCGStab:  Solving for ILambda_11_0, Initial residual = 0.001624941, Final residual = 4.090548e-18, No Iterations 1
DILUPBiCGStab:  Solving for ILambda_12_0, Initial residual = 0.001856855, Final residual = 8.433265e-05, No Iterations 4
DILUPBiCGStab:  Solving for ILambda_13_0, Initial residual = 0.003501211, Final residual = 0.0003074925, No Iterations 7
DILUPBiCGStab:  Solving for ILambda_14_0, Initial residual = 0.005489191, Final residual = 0.000510391, No Iterations 5
DILUPBiCGStab:  Solving for ILambda_15_0, Initial residual = 0.009522567, Final residual = 0.0002772992, No Iterations 6
Radiation solver iter: 10
DILUPBiCGStab:  Solving for ILambda_0_0, Initial residual = 0.008098668, Final residual = 7.17503e-18, No Iterations 1
DILUPBiCGStab:  Solving for ILambda_1_0, Initial residual = 0.004666807, Final residual = 2.328271e-18, No Iterations 1
DILUPBiCGStab:  Solving for ILambda_2_0, Initial residual = 0.001196475, Final residual = 4.499228e-19, No Iterations 1
DILUPBiCGStab:  Solving for ILambda_5_0, Initial residual = 0.00225705, Final residual = 0.000142537, No Iterations 2
DILUPBiCGStab:  Solving for ILambda_6_0, Initial residual = 0.006522182, Final residual = 0.0003332382, No Iterations 3
DILUPBiCGStab:  Solving for ILambda_7_0, Initial residual = 0.007443733, Final residual = 0.0005828354, No Iterations 3
DILUPBiCGStab:  Solving for ILambda_8_0, Initial residual = 0.00235133, Final residual = 1.664014e-18, No Iterations 1
DILUPBiCGStab:  Solving for ILambda_9_0, Initial residual = 0.002430578, Final residual = 2.062156e-18, No Iterations 1
DILUPBiCGStab:  Solving for ILambda_10_0, Initial residual = 0.002070191, Final residual = 2.792945e-18, No Iterations 1
DILUPBiCGStab:  Solving for ILambda_11_0, Initial residual = 0.001317223, Final residual = 3.267584e-18, No Iterations 1
DILUPBiCGStab:  Solving for ILambda_12_0, Initial residual = 0.001515879, Final residual = 6.634587e-05, No Iterations 4
DILUPBiCGStab:  Solving for ILambda_13_0, Initial residual = 0.003008593, Final residual = 0.0002946487, No Iterations 7
DILUPBiCGStab:  Solving for ILambda_14_0, Initial residual = 0.004609703, Final residual = 0.0001830458, No Iterations 8
DILUPBiCGStab:  Solving for ILambda_15_0, Initial residual = 0.007980744, Final residual = 0.0005867703, No Iterations 4
Radiation solver iter: 11
DILUPBiCGStab:  Solving for ILambda_0_0, Initial residual = 0.007016554, Final residual = 5.991306e-18, No Iterations 1
DILUPBiCGStab:  Solving for ILambda_1_0, Initial residual = 0.003595579, Final residual = 1.499439e-18, No Iterations 1
DILUPBiCGStab:  Solving for ILambda_2_0, Initial residual = 0.0006886791, Final residual = 4.671239e-19, No Iterations 1
DILUPBiCGStab:  Solving for ILambda_5_0, Initial residual = 0.001338065, Final residual = 7.626152e-05, No Iterations 2
DILUPBiCGStab:  Solving for ILambda_6_0, Initial residual = 0.005136214, Final residual = 0.0003195028, No Iterations 3
DILUPBiCGStab:  Solving for ILambda_7_0, Initial residual = 0.006400358, Final residual = 0.0004986771, No Iterations 3
DILUPBiCGStab:  Solving for ILambda_8_0, Initial residual = 0.002015051, Final residual = 1.519312e-18, No Iterations 1
DILUPBiCGStab:  Solving for ILambda_9_0, Initial residual = 0.002078328, Final residual = 1.847092e-18, No Iterations 1
DILUPBiCGStab:  Solving for ILambda_10_0, Initial residual = 0.001723046, Final residual = 2.300853e-18, No Iterations 1
DILUPBiCGStab:  Solving for ILambda_11_0, Initial residual = 0.00102547, Final residual = 2.535755e-18, No Iterations 1
DILUPBiCGStab:  Solving for ILambda_12_0, Initial residual = 0.001174812, Final residual = 4.863086e-05, No Iterations 4
DILUPBiCGStab:  Solving for ILambda_13_0, Initial residual = 0.002444776, Final residual = 5.855374e-05, No Iterations 8
DILUPBiCGStab:  Solving for ILambda_14_0, Initial residual = 0.003859125, Final residual = 0.0002042681, No Iterations 10
DILUPBiCGStab:  Solving for ILambda_15_0, Initial residual = 0.006955677, Final residual = 0.0004900916, No Iterations 4
Radiation solver iter: 12
DILUPBiCGStab:  Solving for ILambda_0_0, Initial residual = 0.006027175, Final residual = 4.863512e-18, No Iterations 1
DILUPBiCGStab:  Solving for ILambda_1_0, Initial residual = 0.002740488, Final residual = 1.167059e-18, No Iterations 1
DILUPBiCGStab:  Solving for ILambda_5_0, Initial residual = 0.0007644006, Final residual = 7.922051e-05, No Iterations 2
DILUPBiCGStab:  Solving for ILambda_6_0, Initial residual = 0.004050956, Final residual = 0.0003037557, No Iterations 3
DILUPBiCGStab:  Solving for ILambda_7_0, Initial residual = 0.005453212, Final residual = 0.0003916662, No Iterations 3
DILUPBiCGStab:  Solving for ILambda_8_0, Initial residual = 0.001726581, Final residual = 1.259463e-18, No Iterations 1
DILUPBiCGStab:  Solving for ILambda_9_0, Initial residual = 0.001768616, Final residual = 1.586168e-18, No Iterations 1
DILUPBiCGStab:  Solving for ILambda_10_0, Initial residual = 0.001394139, Final residual = 1.751784e-18, No Iterations 1
DILUPBiCGStab:  Solving for ILambda_11_0, Initial residual = 0.0007785221, Final residual = 1.943014e-18, No Iterations 1
DILUPBiCGStab:  Solving for ILambda_12_0, Initial residual = 0.0008876338, Final residual = 3.895018e-05, No Iterations 4
DILUPBiCGStab:  Solving for ILambda_13_0, Initial residual = 0.001914028, Final residual = 5.678214e-05, No Iterations 8
DILUPBiCGStab:  Solving for ILambda_14_0, Initial residual = 0.003278595, Final residual = 0.0002925585, No Iterations 4
DILUPBiCGStab:  Solving for ILambda_15_0, Initial residual = 0.006010992, Final residual = 0.0003420118, No Iterations 4
Radiation solver iter: 13
DILUPBiCGStab:  Solving for ILambda_0_0, Initial residual = 0.005145403, Final residual = 4.045389e-18, No Iterations 1
DILUPBiCGStab:  Solving for ILambda_1_0, Initial residual = 0.002059415, Final residual = 1.222183e-18, No Iterations 1
DILUPBiCGStab:  Solving for ILambda_6_0, Initial residual = 0.003163947, Final residual = 0.000287116, No Iterations 3
DILUPBiCGStab:  Solving for ILambda_7_0, Initial residual = 0.004593516, Final residual = 0.0003215711, No Iterations 3
DILUPBiCGStab:  Solving for ILambda_8_0, Initial residual = 0.001483408, Final residual = 1.051343e-18, No Iterations 1
DILUPBiCGStab:  Solving for ILambda_9_0, Initial residual = 0.001497258, Final residual = 1.282778e-18, No Iterations 1
DILUPBiCGStab:  Solving for ILambda_10_0, Initial residual = 0.001109569, Final residual = 1.343701e-18, No Iterations 1
DILUPBiCGStab:  Solving for ILambda_13_0, Initial residual = 0.001529484, Final residual = 0.0001417518, No Iterations 6
DILUPBiCGStab:  Solving for ILambda_14_0, Initial residual = 0.002829942, Final residual = 0.0002404594, No Iterations 6
DILUPBiCGStab:  Solving for ILambda_15_0, Initial residual = 0.005220278, Final residual = 0.0004170958, No Iterations 3
Radiation solver iter: 14
DILUPBiCGStab:  Solving for ILambda_0_0, Initial residual = 0.004361159, Final residual = 3.117906e-18, No Iterations 1
DILUPBiCGStab:  Solving for ILambda_1_0, Initial residual = 0.001525264, Final residual = 6.662944e-19, No Iterations 1
DILUPBiCGStab:  Solving for ILambda_6_0, Initial residual = 0.002418409, Final residual = 0.0002209148, No Iterations 3
DILUPBiCGStab:  Solving for ILambda_7_0, Initial residual = 0.003851272, Final residual = 0.0003587033, No Iterations 3
DILUPBiCGStab:  Solving for ILambda_8_0, Initial residual = 0.001274467, Final residual = 8.107068e-19, No Iterations 1
DILUPBiCGStab:  Solving for ILambda_9_0, Initial residual = 0.001260479, Final residual = 1.064222e-18, No Iterations 1
DILUPBiCGStab:  Solving for ILambda_10_0, Initial residual = 0.0008700349, Final residual = 1.078024e-18, No Iterations 1
DILUPBiCGStab:  Solving for ILambda_13_0, Initial residual = 0.001230053, Final residual = 9.567929e-05, No Iterations 7
DILUPBiCGStab:  Solving for ILambda_14_0, Initial residual = 0.002441799, Final residual = 0.0001327546, No Iterations 8
DILUPBiCGStab:  Solving for ILambda_15_0, Initial residual = 0.00456657, Final residual = 0.0003947092, No Iterations 3
GAMG:  Solving for p_rgh, Initial residual = 0.02422043, Final residual = 4.813564e-05, No Iterations 2
limitVelocity limitU Limited 0 (0%) of cells, with max limit 5
time step continuity errors : sum local = 0.0002808473, global = 4.622502e-17, cumulative = 1.39948e-15
rho min/max : 0.5809952 0.9552985
DILUPBiCGStab:  Solving for omega, Initial residual = 0.0001865117, Final residual = 7.260694e-06, No Iterations 1
DILUPBiCGStab:  Solving for k, Initial residual = 0.0006373409, Final residual = 3.254449e-05, No Iterations 1
ExecutionTime = 1.11 s  ClockTime = 1 s

Time = 3304

DILUPBiCGStab:  Solving for h, Initial residual = 8.500658e-05, Final residual = 2.008829e-09, No Iterations 1
limitTemperature limitT Lower limited 0 (0%) of cells, with min limit 280
limitTemperature limitT Upper limited 0 (0%) of cells, with max limit 1200
limitTemperature limitT Unlimited Tmin 414.8568
limitTemperature limitT Unlimited Tmax 498.263
GAMG:  Solving for p_rgh, Initial residual = 0.01748937, Final residual = 4.018395e-05, No Iterations 2
limitVelocity limitU Limited 0 (0%) of cells, with max limit 5
time step continuity errors : sum local = 0.0002389686, global = 1.784519e-17, cumulative = 1.417325e-15
rho min/max : 0.5875657 0.9559269
DILUPBiCGStab:  Solving for omega, Initial residual = 0.0001607336, Final residual = 5.719702e-06, No Iterations 1
DILUPBiCGStab:  Solving for k, Initial residual = 0.0005975607, Final residual = 2.782984e-05, No Iterations 1
ExecutionTime = 1.12 s  ClockTime = 1 s

Time = 3305

DILUPBiCGStab:  Solving for h, Initial residual = 8.648057e-05, Final residual = 2.154343e-09, No Iterations 1
limitTemperature limitT Lower limited 0 (0%) of cells, with min limit 280
limitTemperature limitT Upper limited 0 (0%) of cells, with max limit 1200
limitTemperature limitT Unlimited Tmin 414.8616
limitTemperature limitT Unlimited Tmax 498.2782
GAMG:  Solving for p_rgh, Initial residual = 0.01162303, Final residual = 3.263282e-05, No Iterations 2
limitVelocity limitU Limited 0 (0%) of cells, with max limit 5
time step continuity errors : sum local = 0.0001961536, global = -3.428589e-17, cumulative = 1.383039e-15
rho min/max : 0.5727887 0.9565056
DILUPBiCGStab:  Solving for omega, Initial residual = 0.0001638483, Final residual = 6.175214e-06, No Iterations 1
DILUPBiCGStab:  Solving for k, Initial residual = 0.0006105374, Final residual = 2.985387e-05, No Iterations 1
ExecutionTime = 1.14 s  ClockTime = 1 s

Time = 3306

DILUPBiCGStab:  Solving for h, Initial residual = 8.789001e-05, Final residual = 2.365739e-09, No Iterations 1
limitTemperature limitT Lower limited 0 (0%) of cells, with min limit 280
limitTemperature limitT Upper limited 0 (0%) of cells, with max limit 1200
limitTemperature limitT Unlimited Tmin 414.8669
limitTemperature limitT Unlimited Tmax 498.3286
Radiation solver iter: 0
DILUPBiCGStab:  Solving for ILambda_0_0, Initial residual = 0.04964515, Final residual = 4.865964e-16, No Iterations 1
DILUPBiCGStab:  Solving for ILambda_1_0, Initial residual = 0.1094435, Final residual = 7.089491e-16, No Iterations 1
DILUPBiCGStab:  Solving for ILambda_2_0, Initial residual = 0.1791009, Final residual = 9.488941e-16, No Iterations 1
DILUPBiCGStab:  Solving for ILambda_3_0, Initial residual = 0.2756913, Final residual = 1.356413e-15, No Iterations 1
DILUPBiCGStab:  Solving for ILambda_4_0, Initial residual = 0.2931776, Final residual = 0.01066478, No Iterations 4
DILUPBiCGStab:  Solving for ILambda_5_0, Initial residual = 0.2018363, Final residual = 0.01847551, No Iterations 10
DILUPBiCGStab:  Solving for ILambda_6_0, Initial residual = 0.1286611, Final residual = 0.004389707, No Iterations 15
DILUPBiCGStab:  Solving for ILambda_7_0, Initial residual = 0.05939276, Final residual = 0.0007626249, No Iterations 33
DILUPBiCGStab:  Solving for ILambda_8_0, Initial residual = 0.03483402, Final residual = 1.852145e-16, No Iterations 1
DILUPBiCGStab:  Solving for ILambda_9_0, Initial residual = 0.0750269, Final residual = 3.916204e-16, No Iterations 1
DILUPBiCGStab:  Solving for ILambda_10_0, Initial residual = 0.1164459, Final residual = 5.793486e-16, No Iterations 1
DILUPBiCGStab:  Solving for ILambda_11_0, Initial residual = 0.168667, Final residual = 8.542104e-16, No Iterations 1
DILUPBiCGStab:  Solving for ILambda_12_0, Initial residual = 0.196848, Final residual = 0.01940628, No Iterations 5
DILUPBiCGStab:  Solving for ILambda_13_0, Initial residual = 0.1732635, Final residual = 0.01351813, No Iterations 10
DILUPBiCGStab:  Solving for ILambda_14_0, Initial residual = 0.1468956, Final residual = 0.01299236, No Iterations 17
DILUPBiCGStab:  Solving for ILambda_15_0, Initial residual = 0.1215728, Final residual = 0.004920931, No Iterations 30
Radiation solver iter: 1
DILUPBiCGStab:  Solving for ILambda_0_0, Initial residual = 0.02651464, Final residual = 7.001022e-17, No Iterations 1
DILUPBiCGStab:  Solving for ILambda_1_0, Initial residual = 0.03666102, Final residual = 5.47883e-17, No Iterations 1
DILUPBiCGStab:  Solving for ILambda_2_0, Initial residual = 0.04993773, Final residual = 6.886917e-17, No Iterations 1
DILUPBiCGStab:  Solving for ILambda_3_0, Initial residual = 0.06553514, Final residual = 1.007264e-16, No Iterations 1
DILUPBiCGStab:  Solving for ILambda_4_0, Initial residual = 0.08327822, Final residual = 0.004914965, No Iterations 3
DILUPBiCGStab:  Solving for ILambda_5_0, Initial residual = 0.07687126, Final residual = 0.007414417, No Iterations 6
DILUPBiCGStab:  Solving for ILambda_6_0, Initial residual = 0.04315351, Final residual = 0.004076044, No Iterations 10
DILUPBiCGStab:  Solving for ILambda_7_0, Initial residual = 0.02377658, Final residual = 0.002261667, No Iterations 14
DILUPBiCGStab:  Solving for ILambda_8_0, Initial residual = 0.006879377, Final residual = 1.426907e-17, No Iterations 1
DILUPBiCGStab:  Solving for ILambda_9_0, Initial residual = 0.008835819, Final residual = 2.104383e-17, No Iterations 1
DILUPBiCGStab:  Solving for ILambda_10_0, Initial residual = 0.01161432, Final residual = 3.128796e-17, No Iterations 1
DILUPBiCGStab:  Solving for ILambda_11_0, Initial residual = 0.01328191, Final residual = 4.826656e-17, No Iterations 1
DILUPBiCGStab:  Solving for ILambda_12_0, Initial residual = 0.03909705, Final residual = 0.001468166, No Iterations 4
DILUPBiCGStab:  Solving for ILambda_13_0, Initial residual = 0.03347048, Final residual = 0.003078853, No Iterations 8
DILUPBiCGStab:  Solving for ILambda_14_0, Initial residual = 0.03108813, Final residual = 0.002776546, No Iterations 10
DILUPBiCGStab:  Solving for ILambda_15_0, Initial residual = 0.02660797, Final residual = 0.001174087, No Iterations 20
Radiation solver iter: 2
DILUPBiCGStab:  Solving for ILambda_0_0, Initial residual = 0.01742765, Final residual = 2.771655e-17, No Iterations 1
DILUPBiCGStab:  Solving for ILambda_1_0, Initial residual = 0.02689805, Final residual = 2.712451e-17, No Iterations 1
DILUPBiCGStab:  Solving for ILambda_2_0, Initial residual = 0.03438645, Final residual = 2.828509e-17, No Iterations 1
DILUPBiCGStab:  Solving for ILambda_3_0, Initial residual = 0.03487898, Final residual = 3.575069e-17, No Iterations 1
DILUPBiCGStab:  Solving for ILambda_4_0, Initial residual = 0.04502759, Final residual = 0.00198067, No Iterations 3
DILUPBiCGStab:  Solving for ILambda_5_0, Initial residual = 0.04867068, Final residual = 0.00396401, No Iterations 4
DILUPBiCGStab:  Solving for ILambda_6_0, Initial residual = 0.03241348, Final residual = 0.002703532, No Iterations 5
DILUPBiCGStab:  Solving for ILambda_7_0, Initial residual = 0.01862674, Final residual = 0.001212917, No Iterations 10
DILUPBiCGStab:  Solving for ILambda_8_0, Initial residual = 0.004344766, Final residual = 5.346138e-18, No Iterations 1
DILUPBiCGStab:  Solving for ILambda_9_0, Initial residual = 0.006351572, Final residual = 9.508583e-18, No Iterations 1
DILUPBiCGStab:  Solving for ILambda_10_0, Initial residual = 0.008512956, Final residual = 1.692385e-17, No Iterations 1
DILUPBiCGStab:  Solving for ILambda_11_0, Initial residual = 0.009004654, Final residual = 2.597427e-17, No Iterations 1
DILUPBiCGStab:  Solving for ILambda_12_0, Initial residual = 0.0120929, Final residual = 0.0008938873, No Iterations 4
DILUPBiCGStab:  Solving for ILambda_13_0, Initial residual = 0.01479519, Final residual = 0.0002587046, No Iterations 10
DILUPBiCGStab:  Solving for ILambda_14_0, Initial residual = 0.01640136, Final residual = 0.001481423, No Iterations 11
DILUPBiCGStab:  Solving for ILambda_15_0, Initial residual = 0.01745587, Final residual = 0.001597802, No Iterations 11
Radiation solver iter: 3
DILUPBiCGStab:  Solving for ILambda_0_0, Initial residual = 0.01364652, Final residual = 1.80953e-17, No Iterations 1
DILUPBiCGStab:  Solving for ILambda_1_0, Initial residual = 0.01897767, Final residual = 1.776575e-17, No Iterations 1
DILUPBiCGStab:  Solving for ILambda_2_0, Initial residual = 0.02113978, Final residual = 1.570793e-17, No Iterations 1
DILUPBiCGStab:  Solving for ILambda_3_0, Initial residual = 0.01600183, Final residual = 1.227889e-17, No Iterations 1
DILUPBiCGStab:  Solving for ILambda_4_0, Initial residual = 0.02148079, Final residual = 0.0009778115, No Iterations 2
DILUPBiCGStab:  Solving for ILambda_5_0, Initial residual = 0.0328866, Final residual = 0.002299008, No Iterations 3
DILUPBiCGStab:  Solving for ILambda_6_0, Initial residual = 0.0249249, Final residual = 0.002206221, No Iterations 4
DILUPBiCGStab:  Solving for ILambda_7_0, Initial residual = 0.01418984, Final residual = 0.001275612, No Iterations 5
DILUPBiCGStab:  Solving for ILambda_8_0, Initial residual = 0.003914728, Final residual = 3.874282e-18, No Iterations 1
DILUPBiCGStab:  Solving for ILambda_9_0, Initial residual = 0.006039028, Final residual = 7.474692e-18, No Iterations 1
DILUPBiCGStab:  Solving for ILambda_10_0, Initial residual = 0.007745184, Final residual = 1.284572e-17, No Iterations 1
DILUPBiCGStab:  Solving for ILambda_11_0, Initial residual = 0.007277709, Final residual = 1.909517e-17, No Iterations 1
DILUPBiCGStab:  Solving for ILambda_12_0, Initial residual = 0.008233744, Final residual = 0.0006595863, No Iterations 3
DILUPBiCGStab:  Solving for ILambda_13_0, Initial residual = 0.01141591, Final residual = 0.00100638, No Iterations 7
DILUPBiCGStab:  Solving for ILambda_14_0, Initial residual = 0.01355377, Final residual = 0.001287462, No Iterations 8
DILUPBiCGStab:  Solving for ILambda_15_0, Initial residual = 0.01465362, Final residual = 0.001000239, No Iterations 9
Radiation solver iter: 4
DILUPBiCGStab:  Solving for ILambda_0_0, Initial residual = 0.0114095, Final residual = 1.605061e-17, No Iterations 1
DILUPBiCGStab:  Solving for ILambda_1_0, Initial residual = 0.01396207, Final residual = 1.3795e-17, No Iterations 1
DILUPBiCGStab:  Solving for ILambda_2_0, Initial residual = 0.01400272, Final residual = 9.25154e-18, No Iterations 1
DILUPBiCGStab:  Solving for ILambda_3_0, Initial residual = 0.006865127, Final residual = 5.191091e-18, No Iterations 1
DILUPBiCGStab:  Solving for ILambda_4_0, Initial residual = 0.009780812, Final residual = 0.000769502, No Iterations 2
DILUPBiCGStab:  Solving for ILambda_5_0, Initial residual = 0.02355493, Final residual = 0.001798424, No Iterations 3
DILUPBiCGStab:  Solving for ILambda_6_0, Initial residual = 0.01995736, Final residual = 0.001852761, No Iterations 3
DILUPBiCGStab:  Solving for ILambda_7_0, Initial residual = 0.01180462, Final residual = 0.001070972, No Iterations 5
DILUPBiCGStab:  Solving for ILambda_8_0, Initial residual = 0.003467103, Final residual = 3.346766e-18, No Iterations 1
DILUPBiCGStab:  Solving for ILambda_9_0, Initial residual = 0.005418913, Final residual = 6.216038e-18, No Iterations 1
DILUPBiCGStab:  Solving for ILambda_10_0, Initial residual = 0.006427831, Final residual = 9.38012e-18, No Iterations 1
DILUPBiCGStab:  Solving for ILambda_11_0, Initial residual = 0.005342617, Final residual = 1.23961e-17, No Iterations 1
DILUPBiCGStab:  Solving for ILambda_12_0, Initial residual = 0.006144357, Final residual = 0.000455837, No Iterations 4
DILUPBiCGStab:  Solving for ILambda_13_0, Initial residual = 0.009098005, Final residual = 0.0001687026, No Iterations 9
DILUPBiCGStab:  Solving for ILambda_14_0, Initial residual = 0.01160939, Final residual = 0.0004871233, No Iterations 10
DILUPBiCGStab:  Solving for ILambda_15_0, Initial residual = 0.01256384, Final residual = 0.001048342, No Iterations 6
Radiation solver iter: 5
DILUPBiCGStab:  Solving for ILambda_0_0, Initial residual = 0.009821676, Final residual = 1.110804e-17, No Iterations 1
DILUPBiCGStab:  Solving for ILambda_1_0, Initial residual = 0.01053705, Final residual = 7.759225e-18, No Iterations 1
DILUPBiCGStab:  Solving for ILambda_2_0, Initial residual = 0.009500349, Final residual = 5.692212e-18, No Iterations 1
DILUPBiCGStab:  Solving for ILambda_3_0, Initial residual = 0.002681073, Final residual = 1.843288e-18, No Iterations 1
DILUPBiCGStab:  Solving for ILambda_4_0, Initial residual = 0.004209133, Final residual = 0.0002467753, No Iterations 2
DILUPBiCGStab:  Solving for ILambda_5_0, Initial residual = 0.01704137, Final residual = 0.001493991, No Iterations 3
DILUPBiCGStab:  Solving for ILambda_6_0, Initial residual = 0.01650014, Final residual = 0.001150129, No Iterations 3
DILUPBiCGStab:  Solving for ILambda_7_0, Initial residual = 0.01008664, Final residual = 0.0008945955, No Iterations 4
DILUPBiCGStab:  Solving for ILambda_8_0, Initial residual = 0.00305049, Final residual = 2.515874e-18, No Iterations 1
DILUPBiCGStab:  Solving for ILambda_9_0, Initial residual = 0.004764296, Final residual = 5.109085e-18, No Iterations 1
DILUPBiCGStab:  Solving for ILambda_10_0, Initial residual = 0.005096926, Final residual = 6.597692e-18, No Iterations 1
DILUPBiCGStab:  Solving for ILambda_11_0, Initial residual = 0.00379429, Final residual = 8.557416e-18, No Iterations 1
DILUPBiCGStab:  Solving for ILambda_12_0, Initial residual = 0.004136868, Final residual = 0.0002137402, No Iterations 4
DILUPBiCGStab:  Solving for ILambda_13_0, Initial residual = 0.006677442, Final residual = 0.0004114719, No Iterations 7
DILUPBiCGStab:  Solving for ILambda_14_0, Initial residual = 0.009427724, Final residual = 0.0008808672, No Iterations 7
DILUPBiCGStab:  Solving for ILambda_15_0, Initial residual = 0.01079826, Final residual = 0.00100688, No Iterations 5
Radiation solver iter: 6
DILUPBiCGStab:  Solving for ILambda_0_0, Initial residual = 0.008577945, Final residual = 9.367572e-18, No Iterations 1
DILUPBiCGStab:  Solving for ILambda_1_0, Initial residual = 0.008046499, Final residual = 5.384666e-18, No Iterations 1
DILUPBiCGStab:  Solving for ILambda_2_0, Initial residual = 0.006518063, Final residual = 3.670409e-18, No Iterations 1
DILUPBiCGStab:  Solving for ILambda_3_0, Initial residual = 0.0009904142, Final residual = 6.25638e-19, No Iterations 1
DILUPBiCGStab:  Solving for ILambda_4_0, Initial residual = 0.00157392, Final residual = 8.796517e-05, No Iterations 2
DILUPBiCGStab:  Solving for ILambda_5_0, Initial residual = 0.01209864, Final residual = 0.001126583, No Iterations 2
DILUPBiCGStab:  Solving for ILambda_6_0, Initial residual = 0.01349154, Final residual = 0.001332181, No Iterations 3
DILUPBiCGStab:  Solving for ILambda_7_0, Initial residual = 0.008732108, Final residual = 0.0007711928, No Iterations 4
DILUPBiCGStab:  Solving for ILambda_8_0, Initial residual = 0.002661559, Final residual = 2.060828e-18, No Iterations 1
DILUPBiCGStab:  Solving for ILambda_9_0, Initial residual = 0.004079957, Final residual = 3.896475e-18, No Iterations 1
DILUPBiCGStab:  Solving for ILambda_10_0, Initial residual = 0.004044722, Final residual = 4.900594e-18, No Iterations 1
DILUPBiCGStab:  Solving for ILambda_11_0, Initial residual = 0.002821538, Final residual = 6.111547e-18, No Iterations 1
DILUPBiCGStab:  Solving for ILambda_12_0, Initial residual = 0.003019131, Final residual = 0.0001475229, No Iterations 4
DILUPBiCGStab:  Solving for ILambda_13_0, Initial residual = 0.005155391, Final residual = 9.289083e-05, No Iterations 9
DILUPBiCGStab:  Solving for ILambda_14_0, Initial residual = 0.007655133, Final residual = 0.0006334455, No Iterations 7
DILUPBiCGStab:  Solving for ILambda_15_0, Initial residual = 0.009467651, Final residual = 0.0007842254, No Iterations 5
Radiation solver iter: 7
DILUPBiCGStab:  Solving for ILambda_0_0, Initial residual = 0.007460067, Final residual = 8.064456e-18, No Iterations 1
DILUPBiCGStab:  Solving for ILambda_1_0, Initial residual = 0.006215166, Final residual = 3.308306e-18, No Iterations 1
DILUPBiCGStab:  Solving for ILambda_2_0, Initial residual = 0.004415372, Final residual = 2.03289e-18, No Iterations 1
DILUPBiCGStab:  Solving for ILambda_4_0, Initial residual = 0.0005640235, Final residual = 8.798135e-05, No Iterations 1
DILUPBiCGStab:  Solving for ILambda_5_0, Initial residual = 0.008283478, Final residual = 0.0006742525, No Iterations 2
DILUPBiCGStab:  Solving for ILambda_6_0, Initial residual = 0.01110019, Final residual = 0.0006494187, No Iterations 3
DILUPBiCGStab:  Solving for ILambda_7_0, Initial residual = 0.007565355, Final residual = 0.0006407118, No Iterations 3
DILUPBiCGStab:  Solving for ILambda_8_0, Initial residual = 0.002318776, Final residual = 1.872872e-18, No Iterations 1
DILUPBiCGStab:  Solving for ILambda_9_0, Initial residual = 0.003485189, Final residual = 3.113371e-18, No Iterations 1
DILUPBiCGStab:  Solving for ILambda_10_0, Initial residual = 0.003307383, Final residual = 3.898638e-18, No Iterations 1
DILUPBiCGStab:  Solving for ILambda_11_0, Initial residual = 0.002246065, Final residual = 5.184075e-18, No Iterations 1
DILUPBiCGStab:  Solving for ILambda_12_0, Initial residual = 0.00246902, Final residual = 0.0001056016, No Iterations 4
DILUPBiCGStab:  Solving for ILambda_13_0, Initial residual = 0.004107192, Final residual = 0.0003576571, No Iterations 7
DILUPBiCGStab:  Solving for ILambda_14_0, Initial residual = 0.006096137, Final residual = 0.0005424511, No Iterations 6
DILUPBiCGStab:  Solving for ILambda_15_0, Initial residual = 0.008177978, Final residual = 0.0007805879, No Iterations 5
Radiation solver iter: 8
DILUPBiCGStab:  Solving for ILambda_0_0, Initial residual = 0.00645677, Final residual = 6.687299e-18, No Iterations 1
DILUPBiCGStab:  Solving for ILambda_1_0, Initial residual = 0.00481273, Final residual = 2.781354e-18, No Iterations 1
DILUPBiCGStab:  Solving for ILambda_2_0, Initial residual = 0.002911755, Final residual = 1.507745e-18, No Iterations 1
DILUPBiCGStab:  Solving for ILambda_5_0, Initial residual = 0.005409566, Final residual = 0.000371725, No Iterations 2
DILUPBiCGStab:  Solving for ILambda_6_0, Initial residual = 0.008919281, Final residual = 0.0007945116, No Iterations 2
DILUPBiCGStab:  Solving for ILambda_7_0, Initial residual = 0.006556524, Final residual = 0.0003606561, No Iterations 4
DILUPBiCGStab:  Solving for ILambda_8_0, Initial residual = 0.001998366, Final residual = 1.377991e-18, No Iterations 1
DILUPBiCGStab:  Solving for ILambda_9_0, Initial residual = 0.002965487, Final residual = 2.489446e-18, No Iterations 1
DILUPBiCGStab:  Solving for ILambda_10_0, Initial residual = 0.002759829, Final residual = 3.155247e-18, No Iterations 1
DILUPBiCGStab:  Solving for ILambda_11_0, Initial residual = 0.001825855, Final residual = 4.0276e-18, No Iterations 1
DILUPBiCGStab:  Solving for ILambda_12_0, Initial residual = 0.002042774, Final residual = 0.0001067879, No Iterations 4
DILUPBiCGStab:  Solving for ILambda_13_0, Initial residual = 0.003532366, Final residual = 0.0002941153, No Iterations 6
DILUPBiCGStab:  Solving for ILambda_14_0, Initial residual = 0.00495519, Final residual = 0.0004826965, No Iterations 6
DILUPBiCGStab:  Solving for ILambda_15_0, Initial residual = 0.007098355, Final residual = 0.000473741, No Iterations 5
Radiation solver iter: 9
DILUPBiCGStab:  Solving for ILambda_0_0, Initial residual = 0.005590425, Final residual = 5.128554e-18, No Iterations 1
DILUPBiCGStab:  Solving for ILambda_1_0, Initial residual = 0.003723405, Final residual = 1.718025e-18, No Iterations 1
DILUPBiCGStab:  Solving for ILambda_2_0, Initial residual = 0.001849905, Final residual = 8.839125e-19, No Iterations 1
DILUPBiCGStab:  Solving for ILambda_5_0, Initial residual = 0.003365576, Final residual = 0.0001985437, No Iterations 2
DILUPBiCGStab:  Solving for ILambda_6_0, Initial residual = 0.007135875, Final residual = 0.0006162361, No Iterations 3
DILUPBiCGStab:  Solving for ILambda_7_0, Initial residual = 0.005629924, Final residual = 0.0004835661, No Iterations 3
DILUPBiCGStab:  Solving for ILambda_8_0, Initial residual = 0.001709421, Final residual = 1.240575e-18, No Iterations 1
DILUPBiCGStab:  Solving for ILambda_9_0, Initial residual = 0.002527803, Final residual = 2.009369e-18, No Iterations 1
[...]
DILUPBiCGStab:  Solving for ILambda_3_0, Initial residual = 0.01491917, Final residual = 1.325103e-17, No Iterations 1
DILUPBiCGStab:  Solving for ILambda_4_0, Initial residual = 0.01984895, Final residual = 0.001551798, No Iterations 2
DILUPBiCGStab:  Solving for ILambda_5_0, Initial residual = 0.05382787, Final residual = 0.003989383, No Iterations 3
DILUPBiCGStab:  Solving for ILambda_6_0, Initial residual = 0.0501699, Final residual = 0.00272857, No Iterations 4
DILUPBiCGStab:  Solving for ILambda_7_0, Initial residual = 0.02783311, Final residual = 0.001165644, No Iterations 6
DILUPBiCGStab:  Solving for ILambda_8_0, Initial residual = 0.006022359, Final residual = 5.086816e-18, No Iterations 1
DILUPBiCGStab:  Solving for ILambda_9_0, Initial residual = 0.01184185, Final residual = 1.152976e-17, No Iterations 1
DILUPBiCGStab:  Solving for ILambda_10_0, Initial residual = 0.01492313, Final residual = 1.801589e-17, No Iterations 1
DILUPBiCGStab:  Solving for ILambda_11_0, Initial residual = 0.01193908, Final residual = 2.56902e-17, No Iterations 1
DILUPBiCGStab:  Solving for ILambda_12_0, Initial residual = 0.0128923, Final residual = 0.001098364, No Iterations 3
DILUPBiCGStab:  Solving for ILambda_13_0, Initial residual = 0.01918477, Final residual = 0.001389725, No Iterations 8
DILUPBiCGStab:  Solving for ILambda_14_0, Initial residual = 0.01991307, Final residual = 0.001454288, No Iterations 7
DILUPBiCGStab:  Solving for ILambda_15_0, Initial residual = 0.0163187, Final residual = 0.001473221, No Iterations 7
Radiation solver iter: 5
DILUPBiCGStab:  Solving for ILambda_0_0, Initial residual = 0.01047111, Final residual = 1.123105e-17, No Iterations 1
DILUPBiCGStab:  Solving for ILambda_1_0, Initial residual = 0.01864864, Final residual = 9.529381e-18, No Iterations 1
DILUPBiCGStab:  Solving for ILambda_2_0, Initial residual = 0.02248916, Final residual = 1.423615e-17, No Iterations 1
DILUPBiCGStab:  Solving for ILambda_3_0, Initial residual = 0.006217247, Final residual = 4.543468e-18, No Iterations 1
DILUPBiCGStab:  Solving for ILambda_4_0, Initial residual = 0.008402364, Final residual = 0.0005279918, No Iterations 2
DILUPBiCGStab:  Solving for ILambda_5_0, Initial residual = 0.03627851, Final residual = 0.002697292, No Iterations 3
DILUPBiCGStab:  Solving for ILambda_6_0, Initial residual = 0.04010465, Final residual = 0.003206069, No Iterations 3
DILUPBiCGStab:  Solving for ILambda_7_0, Initial residual = 0.02330901, Final residual = 0.001995864, No Iterations 3
DILUPBiCGStab:  Solving for ILambda_8_0, Initial residual = 0.005343542, Final residual = 3.909708e-18, No Iterations 1
DILUPBiCGStab:  Solving for ILambda_9_0, Initial residual = 0.01058599, Final residual = 9.557595e-18, No Iterations 1
DILUPBiCGStab:  Solving for ILambda_10_0, Initial residual = 0.0119528, Final residual = 1.321975e-17, No Iterations 1
DILUPBiCGStab:  Solving for ILambda_11_0, Initial residual = 0.008568134, Final residual = 1.786176e-17, No Iterations 1
DILUPBiCGStab:  Solving for ILambda_12_0, Initial residual = 0.009527707, Final residual = 0.0002331031, No Iterations 4
DILUPBiCGStab:  Solving for ILambda_13_0, Initial residual = 0.01491636, Final residual = 0.001148141, No Iterations 6
DILUPBiCGStab:  Solving for ILambda_14_0, Initial residual = 0.01672855, Final residual = 0.001532938, No Iterations 7
DILUPBiCGStab:  Solving for ILambda_15_0, Initial residual = 0.01408191, Final residual = 0.001394358, No Iterations 6
Radiation solver iter: 6
DILUPBiCGStab:  Solving for ILambda_0_0, Initial residual = 0.008726234, Final residual = 9.548659e-18, No Iterations 1
DILUPBiCGStab:  Solving for ILambda_1_0, Initial residual = 0.01484509, Final residual = 1.045146e-17, No Iterations 1
DILUPBiCGStab:  Solving for ILambda_2_0, Initial residual = 0.0161317, Final residual = 8.606229e-18, No Iterations 1
DILUPBiCGStab:  Solving for ILambda_3_0, Initial residual = 0.002353683, Final residual = 1.382433e-18, No Iterations 1
DILUPBiCGStab:  Solving for ILambda_4_0, Initial residual = 0.003174413, Final residual = 0.0001868044, No Iterations 2
DILUPBiCGStab:  Solving for ILambda_5_0, Initial residual = 0.02455531, Final residual = 0.002354975, No Iterations 2
DILUPBiCGStab:  Solving for ILambda_6_0, Initial residual = 0.03175284, Final residual = 0.002692017, No Iterations 3
DILUPBiCGStab:  Solving for ILambda_7_0, Initial residual = 0.02028385, Final residual = 0.001900465, No Iterations 3
DILUPBiCGStab:  Solving for ILambda_8_0, Initial residual = 0.004754423, Final residual = 3.68277e-18, No Iterations 1
DILUPBiCGStab:  Solving for ILambda_9_0, Initial residual = 0.009458795, Final residual = 8.339906e-18, No Iterations 1
DILUPBiCGStab:  Solving for ILambda_10_0, Initial residual = 0.009782051, Final residual = 9.607631e-18, No Iterations 1
DILUPBiCGStab:  Solving for ILambda_11_0, Initial residual = 0.006602889, Final residual = 1.314889e-17, No Iterations 1
DILUPBiCGStab:  Solving for ILambda_12_0, Initial residual = 0.007113505, Final residual = 0.0002657461, No Iterations 4
DILUPBiCGStab:  Solving for ILambda_13_0, Initial residual = 0.01222844, Final residual = 0.001144058, No Iterations 6
DILUPBiCGStab:  Solving for ILambda_14_0, Initial residual = 0.01423066, Final residual = 0.001085441, No Iterations 9
DILUPBiCGStab:  Solving for ILambda_15_0, Initial residual = 0.0121244, Final residual = 0.00121081, No Iterations 7
Radiation solver iter: 7
DILUPBiCGStab:  Solving for ILambda_0_0, Initial residual = 0.007327249, Final residual = 7.027933e-18, No Iterations 1
DILUPBiCGStab:  Solving for ILambda_1_0, Initial residual = 0.01198681, Final residual = 5.207908e-18, No Iterations 1
DILUPBiCGStab:  Solving for ILambda_2_0, Initial residual = 0.01120542, Final residual = 6.038275e-18, No Iterations 1
DILUPBiCGStab:  Solving for ILambda_3_0, Initial residual = 0.0008277832, Final residual = 5.817001e-19, No Iterations 1
DILUPBiCGStab:  Solving for ILambda_4_0, Initial residual = 0.001145719, Final residual = 7.445938e-05, No Iterations 2
DILUPBiCGStab:  Solving for ILambda_5_0, Initial residual = 0.01615826, Final residual = 0.00134129, No Iterations 2
DILUPBiCGStab:  Solving for ILambda_6_0, Initial residual = 0.0249763, Final residual = 0.0008034806, No Iterations 4
DILUPBiCGStab:  Solving for ILambda_7_0, Initial residual = 0.01769863, Final residual = 0.0009864923, No Iterations 4
DILUPBiCGStab:  Solving for ILambda_8_0, Initial residual = 0.004270665, Final residual = 3.133862e-18, No Iterations 1
DILUPBiCGStab:  Solving for ILambda_9_0, Initial residual = 0.008370929, Final residual = 6.892662e-18, No Iterations 1
DILUPBiCGStab:  Solving for ILambda_10_0, Initial residual = 0.008056917, Final residual = 7.564595e-18, No Iterations 1
DILUPBiCGStab:  Solving for ILambda_11_0, Initial residual = 0.005265264, Final residual = 1.094693e-17, No Iterations 1
DILUPBiCGStab:  Solving for ILambda_12_0, Initial residual = 0.005774918, Final residual = 0.0003122216, No Iterations 4
DILUPBiCGStab:  Solving for ILambda_13_0, Initial residual = 0.01018223, Final residual = 0.0008943489, No Iterations 5
DILUPBiCGStab:  Solving for ILambda_14_0, Initial residual = 0.01208896, Final residual = 0.001130501, No Iterations 4
DILUPBiCGStab:  Solving for ILambda_15_0, Initial residual = 0.01030426, Final residual = 0.0002597145, No Iterations 9
Radiation solver iter: 8
DILUPBiCGStab:  Solving for ILambda_0_0, Initial residual = 0.006162235, Final residual = 5.902463e-18, No Iterations 1
DILUPBiCGStab:  Solving for ILambda_1_0, Initial residual = 0.009771663, Final residual = 5.148568e-18, No Iterations 1
DILUPBiCGStab:  Solving for ILambda_2_0, Initial residual = 0.007569415, Final residual = 3.498238e-18, No Iterations 1
DILUPBiCGStab:  Solving for ILambda_4_0, Initial residual = 0.0004472485, Final residual = 8.213629e-05, No Iterations 1
DILUPBiCGStab:  Solving for ILambda_5_0, Initial residual = 0.01021507, Final residual = 0.0007271284, No Iterations 2
DILUPBiCGStab:  Solving for ILambda_6_0, Initial residual = 0.019431, Final residual = 0.001903639, No Iterations 2
DILUPBiCGStab:  Solving for ILambda_7_0, Initial residual = 0.01526091, Final residual = 0.001301312, No Iterations 3
DILUPBiCGStab:  Solving for ILambda_8_0, Initial residual = 0.00378711, Final residual = 2.33857e-18, No Iterations 1
DILUPBiCGStab:  Solving for ILambda_9_0, Initial residual = 0.007223727, Final residual = 5.558405e-18, No Iterations 1
DILUPBiCGStab:  Solving for ILambda_10_0, Initial residual = 0.006606936, Final residual = 6.371628e-18, No Iterations 1
DILUPBiCGStab:  Solving for ILambda_11_0, Initial residual = 0.004144812, Final residual = 8.198053e-18, No Iterations 1
DILUPBiCGStab:  Solving for ILambda_12_0, Initial residual = 0.004609911, Final residual = 0.0004182657, No Iterations 4
DILUPBiCGStab:  Solving for ILambda_13_0, Initial residual = 0.008633831, Final residual = 0.0008241558, No Iterations 5
DILUPBiCGStab:  Solving for ILambda_14_0, Initial residual = 0.01041747, Final residual = 0.0009115417, No Iterations 5
DILUPBiCGStab:  Solving for ILambda_15_0, Initial residual = 0.008429757, Final residual = 0.0007987391, No Iterations 6
Radiation solver iter: 9
DILUPBiCGStab:  Solving for ILambda_0_0, Initial residual = 0.005206414, Final residual = 5.822368e-18, No Iterations 1
DILUPBiCGStab:  Solving for ILambda_1_0, Initial residual = 0.008020417, Final residual = 3.930223e-18, No Iterations 1
DILUPBiCGStab:  Solving for ILambda_2_0, Initial residual = 0.004884341, Final residual = 2.509149e-18, No Iterations 1
DILUPBiCGStab:  Solving for ILambda_5_0, Initial residual = 0.006271988, Final residual = 0.0003853647, No Iterations 2
DILUPBiCGStab:  Solving for ILambda_6_0, Initial residual = 0.01533779, Final residual = 0.0009144715, No Iterations 2
DILUPBiCGStab:  Solving for ILambda_7_0, Initial residual = 0.0132814, Final residual = 0.0005749412, No Iterations 4
DILUPBiCGStab:  Solving for ILambda_8_0, Initial residual = 0.003308053, Final residual = 1.987452e-18, No Iterations 1
DILUPBiCGStab:  Solving for ILambda_9_0, Initial residual = 0.006201066, Final residual = 4.635554e-18, No Iterations 1
DILUPBiCGStab:  Solving for ILambda_10_0, Initial residual = 0.005486166, Final residual = 5.263015e-18, No Iterations 1
DILUPBiCGStab:  Solving for ILambda_11_0, Initial residual = 0.00331718, Final residual = 6.397837e-18, No Iterations 1
DILUPBiCGStab:  Solving for ILambda_12_0, Initial residual = 0.003808268, Final residual = 0.0002163863, No Iterations 4
DILUPBiCGStab:  Solving for ILambda_13_0, Initial residual = 0.007402157, Final residual = 0.0004070922, No Iterations 6
DILUPBiCGStab:  Solving for ILambda_14_0, Initial residual = 0.009129053, Final residual = 0.0005627023, No Iterations 6
DILUPBiCGStab:  Solving for ILambda_15_0, Initial residual = 0.007214119, Final residual = 0.0005689049, No Iterations 5
Radiation solver iter: 10
DILUPBiCGStab:  Solving for ILambda_0_0, Initial residual = 0.004384934, Final residual = 3.718884e-18, No Iterations 1
DILUPBiCGStab:  Solving for ILambda_1_0, Initial residual = 0.006579507, Final residual = 4.579935e-18, No Iterations 1
DILUPBiCGStab:  Solving for ILambda_2_0, Initial residual = 0.003029786, Final residual = 1.809162e-18, No Iterations 1
DILUPBiCGStab:  Solving for ILambda_5_0, Initial residual = 0.003672549, Final residual = 0.0002129436, No Iterations 2
DILUPBiCGStab:  Solving for ILambda_6_0, Initial residual = 0.01193555, Final residual = 0.000730164, No Iterations 2
DILUPBiCGStab:  Solving for ILambda_7_0, Initial residual = 0.01141916, Final residual = 0.0009654333, No Iterations 2
DILUPBiCGStab:  Solving for ILambda_8_0, Initial residual = 0.00287743, Final residual = 1.855037e-18, No Iterations 1
DILUPBiCGStab:  Solving for ILambda_9_0, Initial residual = 0.005281886, Final residual = 3.699144e-18, No Iterations 1
DILUPBiCGStab:  Solving for ILambda_10_0, Initial residual = 0.004497144, Final residual = 4.137851e-18, No Iterations 1
DILUPBiCGStab:  Solving for ILambda_11_0, Initial residual = 0.002612877, Final residual = 5.178186e-18, No Iterations 1
DILUPBiCGStab:  Solving for ILambda_12_0, Initial residual = 0.003026294, Final residual = 0.0001873574, No Iterations 4
DILUPBiCGStab:  Solving for ILambda_13_0, Initial residual = 0.006192561, Final residual = 0.0004859502, No Iterations 6
DILUPBiCGStab:  Solving for ILambda_14_0, Initial residual = 0.008056604, Final residual = 0.0007800243, No Iterations 4
DILUPBiCGStab:  Solving for ILambda_15_0, Initial residual = 0.005979566, Final residual = 0.0004733379, No Iterations 4
Radiation solver iter: 11
DILUPBiCGStab:  Solving for ILambda_0_0, Initial residual = 0.003697154, Final residual = 3.689983e-18, No Iterations 1
DILUPBiCGStab:  Solving for ILambda_1_0, Initial residual = 0.005345295, Final residual = 2.055998e-18, No Iterations 1
DILUPBiCGStab:  Solving for ILambda_2_0, Initial residual = 0.001807131, Final residual = 7.044974e-19, No Iterations 1
DILUPBiCGStab:  Solving for ILambda_5_0, Initial residual = 0.002078149, Final residual = 0.000113477, No Iterations 2
DILUPBiCGStab:  Solving for ILambda_6_0, Initial residual = 0.009180586, Final residual = 0.0005171802, No Iterations 2
DILUPBiCGStab:  Solving for ILambda_7_0, Initial residual = 0.009924472, Final residual = 0.0007709721, No Iterations 3
DILUPBiCGStab:  Solving for ILambda_8_0, Initial residual = 0.002491928, Final residual = 1.562002e-18, No Iterations 1
DILUPBiCGStab:  Solving for ILambda_9_0, Initial residual = 0.004470458, Final residual = 3.016544e-18, No Iterations 1
DILUPBiCGStab:  Solving for ILambda_10_0, Initial residual = 0.003613195, Final residual = 3.500746e-18, No Iterations 1
DILUPBiCGStab:  Solving for ILambda_11_0, Initial residual = 0.002018963, Final residual = 4.015773e-18, No Iterations 1
DILUPBiCGStab:  Solving for ILambda_12_0, Initial residual = 0.002388721, Final residual = 8.176824e-05, No Iterations 4
DILUPBiCGStab:  Solving for ILambda_13_0, Initial residual = 0.005084112, Final residual = 0.0003976545, No Iterations 5
DILUPBiCGStab:  Solving for ILambda_14_0, Initial residual = 0.007063547, Final residual = 0.0004360864, No Iterations 6
DILUPBiCGStab:  Solving for ILambda_15_0, Initial residual = 0.005051019, Final residual = 0.0004363295, No Iterations 4
Radiation solver iter: 12
DILUPBiCGStab:  Solving for ILambda_0_0, Initial residual = 0.003101376, Final residual = 2.422784e-18, No Iterations 1
DILUPBiCGStab:  Solving for ILambda_1_0, Initial residual = 0.004307869, Final residual = 1.739921e-18, No Iterations 1
DILUPBiCGStab:  Solving for ILambda_2_0, Initial residual = 0.001032119, Final residual = 4.710175e-19, No Iterations 1
DILUPBiCGStab:  Solving for ILambda_5_0, Initial residual = 0.001156335, Final residual = 6.062234e-05, No Iterations 2
DILUPBiCGStab:  Solving for ILambda_6_0, Initial residual = 0.006960722, Final residual = 0.0003435638, No Iterations 2
DILUPBiCGStab:  Solving for ILambda_7_0, Initial residual = 0.008556349, Final residual = 0.0006039289, No Iterations 3
DILUPBiCGStab:  Solving for ILambda_8_0, Initial residual = 0.002146171, Final residual = 1.324375e-18, No Iterations 1
DILUPBiCGStab:  Solving for ILambda_9_0, Initial residual = 0.003764254, Final residual = 2.529158e-18, No Iterations 1
DILUPBiCGStab:  Solving for ILambda_10_0, Initial residual = 0.002871491, Final residual = 2.929013e-18, No Iterations 1
DILUPBiCGStab:  Solving for ILambda_11_0, Initial residual = 0.001547668, Final residual = 3.006049e-18, No Iterations 1
DILUPBiCGStab:  Solving for ILambda_12_0, Initial residual = 0.001827681, Final residual = 0.0001744572, No Iterations 3
DILUPBiCGStab:  Solving for ILambda_13_0, Initial residual = 0.004160968, Final residual = 0.0003996383, No Iterations 4
DILUPBiCGStab:  Solving for ILambda_14_0, Initial residual = 0.006026169, Final residual = 0.0002815776, No Iterations 6
DILUPBiCGStab:  Solving for ILambda_15_0, Initial residual = 0.004264388, Final residual = 0.0001856152, No Iterations 5
Radiation solver iter: 13
DILUPBiCGStab:  Solving for ILambda_0_0, Initial residual = 0.002598846, Final residual = 1.964776e-18, No Iterations 1
DILUPBiCGStab:  Solving for ILambda_1_0, Initial residual = 0.003427322, Final residual = 1.527332e-18, No Iterations 1
DILUPBiCGStab:  Solving for ILambda_2_0, Initial residual = 0.0005664577, Final residual = 3.079154e-19, No Iterations 1
DILUPBiCGStab:  Solving for ILambda_5_0, Initial residual = 0.0006311454, Final residual = 6.732241e-05, No Iterations 2
DILUPBiCGStab:  Solving for ILambda_6_0, Initial residual = 0.005222186, Final residual = 0.0005032431, No Iterations 2
DILUPBiCGStab:  Solving for ILambda_7_0, Initial residual = 0.007333417, Final residual = 0.00029913, No Iterations 4
DILUPBiCGStab:  Solving for ILambda_8_0, Initial residual = 0.001855453, Final residual = 1.032484e-18, No Iterations 1
DILUPBiCGStab:  Solving for ILambda_9_0, Initial residual = 0.003164862, Final residual = 2.097264e-18, No Iterations 1
DILUPBiCGStab:  Solving for ILambda_10_0, Initial residual = 0.002252605, Final residual = 2.181428e-18, No Iterations 1
DILUPBiCGStab:  Solving for ILambda_11_0, Initial residual = 0.001175212, Final residual = 2.428611e-18, No Iterations 1
DILUPBiCGStab:  Solving for ILambda_12_0, Initial residual = 0.001375305, Final residual = 0.0001347716, No Iterations 3
DILUPBiCGStab:  Solving for ILambda_13_0, Initial residual = 0.003330533, Final residual = 0.0001632456, No Iterations 6
DILUPBiCGStab:  Solving for ILambda_14_0, Initial residual = 0.005031332, Final residual = 0.0003912197, No Iterations 4
DILUPBiCGStab:  Solving for ILambda_15_0, Initial residual = 0.003588734, Final residual = 0.0003275395, No Iterations 3
Radiation solver iter: 14
DILUPBiCGStab:  Solving for ILambda_0_0, Initial residual = 0.002165844, Final residual = 1.560622e-18, No Iterations 1
DILUPBiCGStab:  Solving for ILambda_1_0, Initial residual = 0.002673797, Final residual = 1.140804e-18, No Iterations 1
DILUPBiCGStab:  Solving for ILambda_6_0, Initial residual = 0.003915195, Final residual = 0.0001541744, No Iterations 2
DILUPBiCGStab:  Solving for ILambda_7_0, Initial residual = 0.00621403, Final residual = 0.0003541399, No Iterations 2
DILUPBiCGStab:  Solving for ILambda_8_0, Initial residual = 0.001602052, Final residual = 8.560206e-19, No Iterations 1
DILUPBiCGStab:  Solving for ILambda_9_0, Initial residual = 0.002649345, Final residual = 1.665328e-18, No Iterations 1
DILUPBiCGStab:  Solving for ILambda_10_0, Initial residual = 0.001761105, Final residual = 1.683998e-18, No Iterations 1
DILUPBiCGStab:  Solving for ILambda_11_0, Initial residual = 0.0009006955, Final residual = 1.923418e-18, No Iterations 1
DILUPBiCGStab:  Solving for ILambda_12_0, Initial residual = 0.001076989, Final residual = 9.249818e-05, No Iterations 4
DILUPBiCGStab:  Solving for ILambda_13_0, Initial residual = 0.002596239, Final residual = 0.0001204897, No Iterations 7
DILUPBiCGStab:  Solving for ILambda_14_0, Initial residual = 0.004231977, Final residual = 0.0002259197, No Iterations 6
DILUPBiCGStab:  Solving for ILambda_15_0, Initial residual = 0.003078575, Final residual = 0.0002051972, No Iterations 4
GAMG:  Solving for p_rgh, Initial residual = 0.0003754079, Final residual = 1.332739e-06, No Iterations 2
limitVelocity limitU Limited 0 (0%) of cells, with max limit 5
time step continuity errors : sum local = 7.558606e-06, global = 1.347749e-17, cumulative = 1.363699e-15
rho min/max : 0.5169901 0.9566089
DILUPBiCGStab:  Solving for omega, Initial residual = 9.222352e-05, Final residual = 3.087029e-06, No Iterations 1
DILUPBiCGStab:  Solving for k, Initial residual = 0.0003549301, Final residual = 9.940146e-06, No Iterations 1
ExecutionTime = 50.52 s  ClockTime = 51 s

surfaceFieldValue wallT write:
    areaAverage(plate) of T = 590.9483

surfaceFieldValue wallTriser write:
    areaAverage(riser) of T = 384.7497

End

