/*---------------------------------------------------------------------------*\
| =========                 |                                                 |
| \\      /  F ield         | OpenFOAM: The Open Source CFD Toolbox           |
|  \\    /   O peration     | Version:  2312                                  |
|   \\  /    A nd           | Website:  www.openfoam.com                      |
|    \\/     M anipulation  |                                                 |
\*---------------------------------------------------------------------------*/
Build  : _c39a0f64-20231220 OPENFOAM=2312 version=2312
Arch   : "LSB;label=32;scalar=64"
Exec   : buoyantSimpleFoam
Date   : Jul 02 2026
Time   : 08:49:12
Host   : 5d9f1735f696
PID    : 231
I/O    : uncollated
Case   : /case
nProcs : 1
trapFpe: Floating point exception trapping enabled (FOAM_SIGFPE).
fileModificationChecking : Monitoring run-time modified files using timeStampMaster (fileModificationSkew 5, maxFileModificationPolls 20)
allowSystemOperations : Allowing user-supplied system call operations

// * * * * * * * * * * * * * * * * * * * * * * * * * * * * * * * * * * * * * //
Create time

Create mesh for time = 3000


SIMPLE: convergence criteria
    field p_rgh	 tolerance 1e-05
    field U	 tolerance 1e-05
    field h	 tolerance 1e-05
    field "(k|omega)"	 tolerance 0.001

Reading thermophysical properties

Selecting thermodynamics package 
{
    type            heRhoThermo;
    mixture         pureMixture;
    transport       const;
    thermo          hConst;
    equationOfState perfectGas;
    specie          specie;
    energy          sensibleEnthalpy;
}

Reading field U

Reading/calculating face flux field phi

Creating turbulence model

Selecting turbulence model type RAS
Selecting RAS turbulence model kOmegaSST
Selecting patchDistMethod meshWave
RAS
{
    RASModel        kOmegaSST;
    turbulence      on;
    printCoeffs     on;
    alphaK1         0.85;
    alphaK2         1;
    alphaOmega1     0.5;
    alphaOmega2     0.856;
    gamma1          0.5555556;
    gamma2          0.44;
    beta1           0.075;
    beta2           0.0828;
    betaStar        0.09;
    a1              0.31;
    b1              1;
    c1              10;
    F3              false;
    decayControl    false;
    kInf            0;
    omegaInf        0;
}


Reading g

Reading hRef
Calculating field g.h

Reading field p_rgh

No MRF models present

Selecting radiationModel fvDOM
Selecting absorptionEmissionModel constantAbsorptionEmission
Selecting scatterModel none
Selecting sootModel none
fvDOM : Allocated 16 rays with average orientation:
	I0 : dAve : 	(0.1195698 0.6011177 2.944771e-33) : omega : 	0.7853982 : d : 	(0.1950903 0.9807853 6.123234e-17)
	I1 : dAve : 	(0.3405058 0.509603 2.944771e-33) : omega : 	0.7853982 : d : 	(0.5555702 0.8314696 6.123234e-17)
	I2 : dAve : 	(0.509603 0.3405058 2.944771e-33) : omega : 	0.7853982 : d : 	(0.8314696 0.5555702 6.123234e-17)
	I3 : dAve : 	(0.6011177 0.1195698 2.944771e-33) : omega : 	0.7853982 : d : 	(0.9807853 0.1950903 6.123234e-17)
	I4 : dAve : 	(0.6011177 -0.1195698 2.944771e-33) : omega : 	0.7853982 : d : 	(0.9807853 -0.1950903 6.123234e-17)
	I5 : dAve : 	(0.509603 -0.3405058 2.944771e-33) : omega : 	0.7853982 : d : 	(0.8314696 -0.5555702 6.123234e-17)
	I6 : dAve : 	(0.3405058 -0.509603 2.944771e-33) : omega : 	0.7853982 : d : 	(0.5555702 -0.8314696 6.123234e-17)
	I7 : dAve : 	(0.1195698 -0.6011177 2.944771e-33) : omega : 	0.7853982 : d : 	(0.1950903 -0.9807853 6.123234e-17)
	I8 : dAve : 	(-0.1195698 -0.6011177 2.944771e-33) : omega : 	0.7853982 : d : 	(-0.1950903 -0.9807853 6.123234e-17)
	I9 : dAve : 	(-0.3405058 -0.509603 2.944771e-33) : omega : 	0.7853982 : d : 	(-0.5555702 -0.8314696 6.123234e-17)
	I10 : dAve : 	(-0.509603 -0.3405058 2.944771e-33) : omega : 	0.7853982 : d : 	(-0.8314696 -0.5555702 6.123234e-17)
	I11 : dAve : 	(-0.6011177 -0.1195698 2.944771e-33) : omega : 	0.7853982 : d : 	(-0.9807853 -0.1950903 6.123234e-17)
	I12 : dAve : 	(-0.6011177 0.1195698 2.944771e-33) : omega : 	0.7853982 : d : 	(-0.9807853 0.1950903 6.123234e-17)
	I13 : dAve : 	(-0.509603 0.3405058 2.944771e-33) : omega : 	0.7853982 : d : 	(-0.8314696 0.5555702 6.123234e-17)
	I14 : dAve : 	(-0.3405058 0.509603 2.944771e-33) : omega : 	0.7853982 : d : 	(-0.5555702 0.8314696 6.123234e-17)
	I15 : dAve : 	(-0.1195698 0.6011177 2.944771e-33) : omega : 	0.7853982 : d : 	(-0.1950903 0.9807853 6.123234e-17)
Total omega : 12.56637

Creating finite volume options from "system/fvOptions"

Selecting finite volume options type limitTemperature
    Source: limitT
    - selecting all cells
    - selected 12000 cell(s) with volume 0.473422
Selecting finite volume options type limitVelocity
    Source: limitU
    - selecting all cells
    - selected 12000 cell(s) with volume 0.473422

Starting time loop

surfaceFieldValue wallT:
    operation     = areaAverage


surfaceFieldValue wallTriser:
    operation     = areaAverage


Time = 3001

DILUPBiCGStab:  Solving for h, Initial residual = 0.0001470577, Final residual = 4.8697e-09, No Iterations 1
limitTemperature limitT Lower limited 0 (0%) of cells, with min limit 280
limitTemperature limitT Upper limited 0 (0%) of cells, with max limit 1200
limitTemperature limitT Unlimited Tmin 414.3105
limitTemperature limitT Unlimited Tmax 490.3812
Radiation solver iter: 0
Selecting boundary radiation Model: lookup
Selecting boundary radiation Model: lookup
Selecting boundary radiation Model: lookup
DILUPBiCGStab:  Solving for ILambda_0_0, Initial residual = 0.4829177, Final residual = 4.816305e-15, No Iterations 1
DILUPBiCGStab:  Solving for ILambda_1_0, Initial residual = 0.6732783, Final residual = 4.766563e-15, No Iterations 1
DILUPBiCGStab:  Solving for ILambda_2_0, Initial residual = 0.7717883, Final residual = 4.055573e-15, No Iterations 1
DILUPBiCGStab:  Solving for ILambda_3_0, Initial residual = 0.8421787, Final residual = 4.401565e-15, No Iterations 1
DILUPBiCGStab:  Solving for ILambda_4_0, Initial residual = 0.8464859, Final residual = 0.05926857, No Iterations 4
DILUPBiCGStab:  Solving for ILambda_5_0, Initial residual = 0.7823841, Final residual = 0.06671252, No Iterations 9
DILUPBiCGStab:  Solving for ILambda_6_0, Initial residual = 0.6889128, Final residual = 0.0652375, No Iterations 20
DILUPBiCGStab:  Solving for ILambda_7_0, Initial residual = 0.5368281, Final residual = 0.01292835, No Iterations 29
DILUPBiCGStab:  Solving for ILambda_8_0, Initial residual = 0.4855482, Final residual = 4.188852e-15, No Iterations 1
DILUPBiCGStab:  Solving for ILambda_9_0, Initial residual = 0.6800952, Final residual = 4.430896e-15, No Iterations 1
DILUPBiCGStab:  Solving for ILambda_10_0, Initial residual = 0.7970279, Final residual = 4.546185e-15, No Iterations 1
DILUPBiCGStab:  Solving for ILambda_11_0, Initial residual = 0.8658201, Final residual = 4.358407e-15, No Iterations 1
DILUPBiCGStab:  Solving for ILambda_12_0, Initial residual = 0.8851918, Final residual = 0.03103605, No Iterations 5
DILUPBiCGStab:  Solving for ILambda_13_0, Initial residual = 0.8534808, Final residual = 0.001203014, No Iterations 12
DILUPBiCGStab:  Solving for ILambda_14_0, Initial residual = 0.7967565, Final residual = 0.03540659, No Iterations 18
DILUPBiCGStab:  Solving for ILambda_15_0, Initial residual = 0.695164, Final residual = 0.06176509, No Iterations 27
Radiation solver iter: 1
DILUPBiCGStab:  Solving for ILambda_0_0, Initial residual = 0.05576655, Final residual = 2.720387e-16, No Iterations 1
DILUPBiCGStab:  Solving for ILambda_1_0, Initial residual = 0.07238845, Final residual = 2.838763e-16, No Iterations 1
DILUPBiCGStab:  Solving for ILambda_2_0, Initial residual = 0.09034798, Final residual = 3.360226e-16, No Iterations 1
DILUPBiCGStab:  Solving for ILambda_3_0, Initial residual = 0.1073116, Final residual = 4.805514e-16, No Iterations 1
DILUPBiCGStab:  Solving for ILambda_4_0, Initial residual = 0.2658602, Final residual = 0.0133238, No Iterations 3
DILUPBiCGStab:  Solving for ILambda_5_0, Initial residual = 0.2011708, Final residual = 0.01490488, No Iterations 9
DILUPBiCGStab:  Solving for ILambda_6_0, Initial residual = 0.1383955, Final residual = 0.002372772, No Iterations 14
DILUPBiCGStab:  Solving for ILambda_7_0, Initial residual = 0.05401967, Final residual = 0.005207385, No Iterations 19
DILUPBiCGStab:  Solving for ILambda_8_0, Initial residual = 0.09363764, Final residual = 4.775465e-16, No Iterations 1
DILUPBiCGStab:  Solving for ILambda_9_0, Initial residual = 0.09650437, Final residual = 4.255896e-16, No Iterations 1
DILUPBiCGStab:  Solving for ILambda_10_0, Initial residual = 0.09867586, Final residual = 4.090076e-16, No Iterations 1
DILUPBiCGStab:  Solving for ILambda_11_0, Initial residual = 0.09510789, Final residual = 3.991159e-16, No Iterations 1
DILUPBiCGStab:  Solving for ILambda_12_0, Initial residual = 0.1623352, Final residual = 0.008911065, No Iterations 3
DILUPBiCGStab:  Solving for ILambda_13_0, Initial residual = 0.09203974, Final residual = 0.005941092, No Iterations 9
DILUPBiCGStab:  Solving for ILambda_14_0, Initial residual = 0.1439489, Final residual = 0.005131671, No Iterations 12
DILUPBiCGStab:  Solving for ILambda_15_0, Initial residual = 0.1505976, Final residual = 0.01492418, No Iterations 20
Radiation solver iter: 2
DILUPBiCGStab:  Solving for ILambda_0_0, Initial residual = 0.0285385, Final residual = 6.1056e-17, No Iterations 1
DILUPBiCGStab:  Solving for ILambda_1_0, Initial residual = 0.0328607, Final residual = 4.744326e-17, No Iterations 1
DILUPBiCGStab:  Solving for ILambda_2_0, Initial residual = 0.03380712, Final residual = 4.151206e-17, No Iterations 1
DILUPBiCGStab:  Solving for ILambda_3_0, Initial residual = 0.02368932, Final residual = 3.503042e-17, No Iterations 1
DILUPBiCGStab:  Solving for ILambda_4_0, Initial residual = 0.0307962, Final residual = 0.00272963, No Iterations 3
DILUPBiCGStab:  Solving for ILambda_5_0, Initial residual = 0.04367501, Final residual = 0.002771468, No Iterations 5
DILUPBiCGStab:  Solving for ILambda_6_0, Initial residual = 0.03905052, Final residual = 0.00176673, No Iterations 10
DILUPBiCGStab:  Solving for ILambda_7_0, Initial residual = 0.03099177, Final residual = 0.002759501, No Iterations 10
DILUPBiCGStab:  Solving for ILambda_8_0, Initial residual = 0.03631404, Final residual = 7.367051e-17, No Iterations 1
DILUPBiCGStab:  Solving for ILambda_9_0, Initial residual = 0.0348093, Final residual = 6.281705e-17, No Iterations 1
DILUPBiCGStab:  Solving for ILambda_10_0, Initial residual = 0.03172286, Final residual = 6.588003e-17, No Iterations 1
DILUPBiCGStab:  Solving for ILambda_11_0, Initial residual = 0.02433832, Final residual = 6.827841e-17, No Iterations 1
DILUPBiCGStab:  Solving for ILambda_12_0, Initial residual = 0.02988451, Final residual = 0.002295629, No Iterations 4
DILUPBiCGStab:  Solving for ILambda_13_0, Initial residual = 0.03284544, Final residual = 0.001123703, No Iterations 11
DILUPBiCGStab:  Solving for ILambda_14_0, Initial residual = 0.03639775, Final residual = 0.001338338, No Iterations 13
DILUPBiCGStab:  Solving for ILambda_15_0, Initial residual = 0.05325733, Final residual = 0.002174031, No Iterations 15
Radiation solver iter: 3
DILUPBiCGStab:  Solving for ILambda_0_0, Initial residual = 0.02302885, Final residual = 3.669201e-17, No Iterations 1
DILUPBiCGStab:  Solving for ILambda_1_0, Initial residual = 0.02452157, Final residual = 2.527736e-17, No Iterations 1
DILUPBiCGStab:  Solving for ILambda_2_0, Initial residual = 0.02165836, Final residual = 2.273489e-17, No Iterations 1
DILUPBiCGStab:  Solving for ILambda_3_0, Initial residual = 0.009037336, Final residual = 8.258121e-18, No Iterations 1
DILUPBiCGStab:  Solving for ILambda_4_0, Initial residual = 0.01217417, Final residual = 0.0007497388, No Iterations 2
DILUPBiCGStab:  Solving for ILambda_5_0, Initial residual = 0.02271207, Final residual = 0.001833185, No Iterations 4
DILUPBiCGStab:  Solving for ILambda_6_0, Initial residual = 0.02393915, Final residual = 0.001590236, No Iterations 5
DILUPBiCGStab:  Solving for ILambda_7_0, Initial residual = 0.02328832, Final residual = 0.001056862, No Iterations 9
DILUPBiCGStab:  Solving for ILambda_8_0, Initial residual = 0.02829949, Final residual = 3.905264e-17, No Iterations 1
DILUPBiCGStab:  Solving for ILambda_9_0, Initial residual = 0.02686797, Final residual = 3.752403e-17, No Iterations 1
DILUPBiCGStab:  Solving for ILambda_10_0, Initial residual = 0.02224663, Final residual = 3.793738e-17, No Iterations 1
DILUPBiCGStab:  Solving for ILambda_11_0, Initial residual = 0.01414929, Final residual = 4.03187e-17, No Iterations 1
DILUPBiCGStab:  Solving for ILambda_12_0, Initial residual = 0.01459207, Final residual = 0.001072335, No Iterations 4
DILUPBiCGStab:  Solving for ILambda_13_0, Initial residual = 0.02090287, Final residual = 0.001801504, No Iterations 8
DILUPBiCGStab:  Solving for ILambda_14_0, Initial residual = 0.02459909, Final residual = 0.001900223, No Iterations 10
DILUPBiCGStab:  Solving for ILambda_15_0, Initial residual = 0.03085254, Final residual = 0.002310236, No Iterations 9
Radiation solver iter: 4
DILUPBiCGStab:  Solving for ILambda_0_0, Initial residual = 0.01905933, Final residual = 3.113368e-17, No Iterations 1
DILUPBiCGStab:  Solving for ILambda_1_0, Initial residual = 0.01929492, Final residual = 1.902516e-17, No Iterations 1
DILUPBiCGStab:  Solving for ILambda_2_0, Initial residual = 0.01404972, Final residual = 1.137776e-17, No Iterations 1
DILUPBiCGStab:  Solving for ILambda_3_0, Initial residual = 0.003633355, Final residual = 2.30464e-18, No Iterations 1
DILUPBiCGStab:  Solving for ILambda_4_0, Initial residual = 0.004698597, Final residual = 0.0003716673, No Iterations 2
DILUPBiCGStab:  Solving for ILambda_5_0, Initial residual = 0.0137595, Final residual = 0.001252702, No Iterations 3
DILUPBiCGStab:  Solving for ILambda_6_0, Initial residual = 0.0169274, Final residual = 0.001449363, No Iterations 3
DILUPBiCGStab:  Solving for ILambda_7_0, Initial residual = 0.01853015, Final residual = 0.001142923, No Iterations 6
DILUPBiCGStab:  Solving for ILambda_8_0, Initial residual = 0.02340203, Final residual = 3.186945e-17, No Iterations 1
DILUPBiCGStab:  Solving for ILambda_9_0, Initial residual = 0.02163914, Final residual = 2.717158e-17, No Iterations 1
DILUPBiCGStab:  Solving for ILambda_10_0, Initial residual = 0.01577041, Final residual = 2.629007e-17, No Iterations 1
DILUPBiCGStab:  Solving for ILambda_11_0, Initial residual = 0.008751541, Final residual = 2.456258e-17, No Iterations 1
DILUPBiCGStab:  Solving for ILambda_12_0, Initial residual = 0.009560721, Final residual = 0.0003767542, No Iterations 4
DILUPBiCGStab:  Solving for ILambda_13_0, Initial residual = 0.01584416, Final residual = 0.001549282, No Iterations 7
DILUPBiCGStab:  Solving for ILambda_14_0, Initial residual = 0.02107875, Final residual = 0.002003296, No Iterations 7
DILUPBiCGStab:  Solving for ILambda_15_0, Initial residual = 0.02481691, Final residual = 0.002276485, No Iterations 8
Radiation solver iter: 5
DILUPBiCGStab:  Solving for ILambda_0_0, Initial residual = 0.01603217, Final residual = 2.193563e-17, No Iterations 1
DILUPBiCGStab:  Solving for ILambda_1_0, Initial residual = 0.01553612, Final residual = 1.426199e-17, No Iterations 1
DILUPBiCGStab:  Solving for ILambda_2_0, Initial residual = 0.009232087, Final residual = 6.135308e-18, No Iterations 1
DILUPBiCGStab:  Solving for ILambda_3_0, Initial residual = 0.001415969, Final residual = 1.387437e-18, No Iterations 1
DILUPBiCGStab:  Solving for ILambda_4_0, Initial residual = 0.001826764, Final residual = 0.0001407585, No Iterations 2
DILUPBiCGStab:  Solving for ILambda_5_0, Initial residual = 0.009210601, Final residual = 0.0003146581, No Iterations 4
DILUPBiCGStab:  Solving for ILambda_6_0, Initial residual = 0.01315817, Final residual = 0.0009461549, No Iterations 3
DILUPBiCGStab:  Solving for ILambda_7_0, Initial residual = 0.01562208, Final residual = 0.00114235, No Iterations 4
DILUPBiCGStab:  Solving for ILambda_8_0, Initial residual = 0.02005768, Final residual = 2.342208e-17, No Iterations 1
DILUPBiCGStab:  Solving for ILambda_9_0, Initial residual = 0.01734769, Final residual = 2.163554e-17, No Iterations 1
DILUPBiCGStab:  Solving for ILambda_10_0, Initial residual = 0.0110884, Final residual = 1.75216e-17, No Iterations 1
DILUPBiCGStab:  Solving for ILambda_11_0, Initial residual = 0.005812627, Final residual = 1.628439e-17, No Iterations 1
DILUPBiCGStab:  Solving for ILambda_12_0, Initial residual = 0.006042985, Final residual = 0.0004760944, No Iterations 3
DILUPBiCGStab:  Solving for ILambda_13_0, Initial residual = 0.01159503, Final residual = 0.00094867, No Iterations 7
DILUPBiCGStab:  Solving for ILambda_14_0, Initial residual = 0.01754066, Final residual = 0.001629216, No Iterations 8
DILUPBiCGStab:  Solving for ILambda_15_0, Initial residual = 0.02130846, Final residual = 0.00204004, No Iterations 6
Radiation solver iter: 6
DILUPBiCGStab:  Solving for ILambda_0_0, Initial residual = 0.01353653, Final residual = 1.677301e-17, No Iterations 1
DILUPBiCGStab:  Solving for ILambda_1_0, Initial residual = 0.01249419, Final residual = 8.785494e-18, No Iterations 1
DILUPBiCGStab:  Solving for ILambda_2_0, Initial residual = 0.005977257, Final residual = 3.952608e-18, No Iterations 1
DILUPBiCGStab:  Solving for ILambda_3_0, Initial residual = 0.0005609585, Final residual = 5.079406e-19, No Iterations 1
DILUPBiCGStab:  Solving for ILambda_4_0, Initial residual = 0.0007452565, Final residual = 7.510148e-05, No Iterations 2
DILUPBiCGStab:  Solving for ILambda_5_0, Initial residual = 0.006033227, Final residual = 0.0004751848, No Iterations 3
DILUPBiCGStab:  Solving for ILambda_6_0, Initial residual = 0.01039498, Final residual = 0.0003288528, No Iterations 4
DILUPBiCGStab:  Solving for ILambda_7_0, Initial residual = 0.01340096, Final residual = 0.001305395, No Iterations 4
DILUPBiCGStab:  Solving for ILambda_8_0, Initial residual = 0.01716413, Final residual = 1.82476e-17, No Iterations 1
DILUPBiCGStab:  Solving for ILambda_9_0, Initial residual = 0.01370426, Final residual = 1.565717e-17, No Iterations 1
DILUPBiCGStab:  Solving for ILambda_10_0, Initial residual = 0.007981366, Final residual = 1.224681e-17, No Iterations 1
DILUPBiCGStab:  Solving for ILambda_11_0, Initial residual = 0.004255739, Final residual = 1.200043e-17, No Iterations 1
DILUPBiCGStab:  Solving for ILambda_12_0, Initial residual = 0.004376876, Final residual = 0.000251679, No Iterations 4
DILUPBiCGStab:  Solving for ILambda_13_0, Initial residual = 0.008681876, Final residual = 0.0008620288, No Iterations 6
DILUPBiCGStab:  Solving for ILambda_14_0, Initial residual = 0.01431022, Final residual = 0.001341083, No Iterations 8
DILUPBiCGStab:  Solving for ILambda_15_0, Initial residual = 0.01829064, Final residual = 0.001775928, No Iterations 6
Radiation solver iter: 7
DILUPBiCGStab:  Solving for ILambda_0_0, Initial residual = 0.01139729, Final residual = 1.298222e-17, No Iterations 1
DILUPBiCGStab:  Solving for ILambda_1_0, Initial residual = 0.009970248, Final residual = 6.965334e-18, No Iterations 1
DILUPBiCGStab:  Solving for ILambda_2_0, Initial residual = 0.003778151, Final residual = 2.257142e-18, No Iterations 1
DILUPBiCGStab:  Solving for ILambda_5_0, Initial residual = 0.003915891, Final residual = 0.0003016713, No Iterations 3
DILUPBiCGStab:  Solving for ILambda_6_0, Initial residual = 0.008129947, Final residual = 0.0006825079, No Iterations 2
DILUPBiCGStab:  Solving for ILambda_7_0, Initial residual = 0.01146574, Final residual = 0.0006415876, No Iterations 5
DILUPBiCGStab:  Solving for ILambda_8_0, Initial residual = 0.01465158, Final residual = 1.435529e-17, No Iterations 1
DILUPBiCGStab:  Solving for ILambda_9_0, Initial residual = 0.01070714, Final residual = 1.20331e-17, No Iterations 1
DILUPBiCGStab:  Solving for ILambda_10_0, Initial residual = 0.006099675, Final residual = 9.154991e-18, No Iterations 1
DILUPBiCGStab:  Solving for ILambda_11_0, Initial residual = 0.003355216, Final residual = 9.574051e-18, No Iterations 1
DILUPBiCGStab:  Solving for ILambda_12_0, Initial residual = 0.003291695, Final residual = 0.0001568891, No Iterations 4
DILUPBiCGStab:  Solving for ILambda_13_0, Initial residual = 0.006906798, Final residual = 0.0001430767, No Iterations 9
DILUPBiCGStab:  Solving for ILambda_14_0, Initial residual = 0.01139531, Final residual = 0.000610453, No Iterations 8
DILUPBiCGStab:  Solving for ILambda_15_0, Initial residual = 0.01570622, Final residual = 0.001354145, No Iterations 6
Radiation solver iter: 8
DILUPBiCGStab:  Solving for ILambda_0_0, Initial residual = 0.009611905, Final residual = 9.376717e-18, No Iterations 1
DILUPBiCGStab:  Solving for ILambda_1_0, Initial residual = 0.007878625, Final residual = 4.769583e-18, No Iterations 1
DILUPBiCGStab:  Solving for ILambda_2_0, Initial residual = 0.002328689, Final residual = 1.090752e-18, No Iterations 1
DILUPBiCGStab:  Solving for ILambda_5_0, Initial residual = 0.002516098, Final residual = 0.0001930112, No Iterations 3
DILUPBiCGStab:  Solving for ILambda_6_0, Initial residual = 0.006480884, Final residual = 0.0004817627, No Iterations 2
DILUPBiCGStab:  Solving for ILambda_7_0, Initial residual = 0.009658949, Final residual = 0.0006477722, No Iterations 4
DILUPBiCGStab:  Solving for ILambda_8_0, Initial residual = 0.01245993, Final residual = 1.109066e-17, No Iterations 1
DILUPBiCGStab:  Solving for ILambda_9_0, Initial residual = 0.008412779, Final residual = 8.828252e-18, No Iterations 1
DILUPBiCGStab:  Solving for ILambda_10_0, Initial residual = 0.005032687, Final residual = 7.575372e-18, No Iterations 1
DILUPBiCGStab:  Solving for ILambda_11_0, Initial residual = 0.002797417, Final residual = 7.726463e-18, No Iterations 1
DILUPBiCGStab:  Solving for ILambda_12_0, Initial residual = 0.002763007, Final residual = 1.834173e-05, No Iterations 5
DILUPBiCGStab:  Solving for ILambda_13_0, Initial residual = 0.005374523, Final residual = 0.000318942, No Iterations 8
DILUPBiCGStab:  Solving for ILambda_14_0, Initial residual = 0.009078756, Final residual = 0.000629449, No Iterations 8
DILUPBiCGStab:  Solving for ILambda_15_0, Initial residual = 0.01320263, Final residual = 0.0006580266, No Iterations 8
Radiation solver iter: 9
DILUPBiCGStab:  Solving for ILambda_0_0, Initial residual = 0.008140298, Final residual = 7.493595e-18, No Iterations 1
DILUPBiCGStab:  Solving for ILambda_1_0, Initial residual = 0.006131129, Final residual = 3.823188e-18, No Iterations 1
DILUPBiCGStab:  Solving for ILambda_2_0, Initial residual = 0.001413583, Final residual = 7.451154e-19, No Iterations 1
DILUPBiCGStab:  Solving for ILambda_5_0, Initial residual = 0.001580339, Final residual = 0.0001375962, No Iterations 3
DILUPBiCGStab:  Solving for ILambda_6_0, Initial residual = 0.0051237, Final residual = 0.0003497784, No Iterations 2
DILUPBiCGStab:  Solving for ILambda_7_0, Initial residual = 0.008261775, Final residual = 0.0007320081, No Iterations 3
DILUPBiCGStab:  Solving for ILambda_8_0, Initial residual = 0.01062836, Final residual = 8.258746e-18, No Iterations 1
DILUPBiCGStab:  Solving for ILambda_9_0, Initial residual = 0.006764917, Final residual = 7.162884e-18, No Iterations 1
DILUPBiCGStab:  Solving for ILambda_10_0, Initial residual = 0.004283418, Final residual = 6.200612e-18, No Iterations 1
DILUPBiCGStab:  Solving for ILambda_11_0, Initial residual = 0.002278989, Final residual = 6.055106e-18, No Iterations 1
DILUPBiCGStab:  Solving for ILambda_12_0, Initial residual = 0.002262695, Final residual = 0.0001261105, No Iterations 4
DILUPBiCGStab:  Solving for ILambda_13_0, Initial residual = 0.00453216, Final residual = 0.0002403371, No Iterations 7
DILUPBiCGStab:  Solving for ILambda_14_0, Initial residual = 0.007339594, Final residual = 0.0006083001, No Iterations 5
DILUPBiCGStab:  Solving for ILambda_15_0, Initial residual = 0.01107058, Final residual = 0.0009674882, No Iterations 4
Radiation solver iter: 10
DILUPBiCGStab:  Solving for ILambda_0_0, Initial residual = 0.006888245, Final residual = 6.285701e-18, No Iterations 1
DILUPBiCGStab:  Solving for ILambda_1_0, Initial residual = 0.004710609, Final residual = 2.75825e-18, No Iterations 1
DILUPBiCGStab:  Solving for ILambda_2_0, Initial residual = 0.0008337204, Final residual = 3.486734e-19, No Iterations 1
DILUPBiCGStab:  Solving for ILambda_5_0, Initial residual = 0.0009614531, Final residual = 8.544795e-05, No Iterations 2
DILUPBiCGStab:  Solving for ILambda_6_0, Initial residual = 0.004005588, Final residual = 0.0002593288, No Iterations 2
DILUPBiCGStab:  Solving for ILambda_7_0, Initial residual = 0.007069602, Final residual = 0.0003696492, No Iterations 4
DILUPBiCGStab:  Solving for ILambda_8_0, Initial residual = 0.009136105, Final residual = 7.39032e-18, No Iterations 1
DILUPBiCGStab:  Solving for ILambda_9_0, Initial residual = 0.005599274, Final residual = 5.301541e-18, No Iterations 1
DILUPBiCGStab:  Solving for ILambda_10_0, Initial residual = 0.003660615, Final residual = 5.153639e-18, No Iterations 1
DILUPBiCGStab:  Solving for ILambda_11_0, Initial residual = 0.00184967, Final residual = 4.799584e-18, No Iterations 1
DILUPBiCGStab:  Solving for ILambda_12_0, Initial residual = 0.001885941, Final residual = 8.127001e-05, No Iterations 4
DILUPBiCGStab:  Solving for ILambda_13_0, Initial residual = 0.003719079, Final residual = 0.0001256461, No Iterations 8
DILUPBiCGStab:  Solving for ILambda_14_0, Initial residual = 0.00606402, Final residual = 0.0004316058, No Iterations 7
DILUPBiCGStab:  Solving for ILambda_15_0, Initial residual = 0.009564003, Final residual = 0.0004132858, No Iterations 5
Radiation solver iter: 11
DILUPBiCGStab:  Solving for ILambda_0_0, Initial residual = 0.005840836, Final residual = 4.491114e-18, No Iterations 1
DILUPBiCGStab:  Solving for ILambda_1_0, Initial residual = 0.003569, Final residual = 1.855654e-18, No Iterations 1
DILUPBiCGStab:  Solving for ILambda_6_0, Initial residual = 0.003090099, Final residual = 0.00018263, No Iterations 2
DILUPBiCGStab:  Solving for ILambda_7_0, Initial residual = 0.005973022, Final residual = 0.0001858269, No Iterations 5
DILUPBiCGStab:  Solving for ILambda_8_0, Initial residual = 0.007896251, Final residual = 6.081461e-18, No Iterations 1
DILUPBiCGStab:  Solving for ILambda_9_0, Initial residual = 0.004707737, Final residual = 4.429926e-18, No Iterations 1
DILUPBiCGStab:  Solving for ILambda_10_0, Initial residual = 0.003009301, Final residual = 4.177505e-18, No Iterations 1
DILUPBiCGStab:  Solving for ILambda_11_0, Initial residual = 0.001413784, Final residual = 3.736784e-18, No Iterations 1
DILUPBiCGStab:  Solving for ILambda_12_0, Initial residual = 0.001429591, Final residual = 5.700032e-05, No Iterations 4
DILUPBiCGStab:  Solving for ILambda_13_0, Initial residual = 0.002978265, Final residual = 0.0002750684, No Iterations 7
DILUPBiCGStab:  Solving for ILambda_14_0, Initial residual = 0.005078865, Final residual = 0.000466088, No Iterations 4
DILUPBiCGStab:  Solving for ILambda_15_0, Initial residual = 0.008105348, Final residual = 0.000474512, No Iterations 4
Radiation solver iter: 12
DILUPBiCGStab:  Solving for ILambda_0_0, Initial residual = 0.004945388, Final residual = 3.842087e-18, No Iterations 1
DILUPBiCGStab:  Solving for ILambda_1_0, Initial residual = 0.002667576, Final residual = 1.268376e-18, No Iterations 1
DILUPBiCGStab:  Solving for ILambda_6_0, Initial residual = 0.002340705, Final residual = 0.0001238097, No Iterations 2
DILUPBiCGStab:  Solving for ILambda_7_0, Initial residual = 0.005001595, Final residual = 0.0004571066, No Iterations 2
DILUPBiCGStab:  Solving for ILambda_8_0, Initial residual = 0.006842735, Final residual = 5.37905e-18, No Iterations 1
DILUPBiCGStab:  Solving for ILambda_9_0, Initial residual = 0.003993696, Final residual = 3.485844e-18, No Iterations 1
DILUPBiCGStab:  Solving for ILambda_10_0, Initial residual = 0.002422338, Final residual = 3.151179e-18, No Iterations 1
DILUPBiCGStab:  Solving for ILambda_11_0, Initial residual = 0.001064297, Final residual = 2.839313e-18, No Iterations 1
DILUPBiCGStab:  Solving for ILambda_12_0, Initial residual = 0.001072143, Final residual = 4.08248e-05, No Iterations 4
DILUPBiCGStab:  Solving for ILambda_13_0, Initial residual = 0.002421637, Final residual = 0.0001928692, No Iterations 6
DILUPBiCGStab:  Solving for ILambda_14_0, Initial residual = 0.004358944, Final residual = 0.0004104435, No Iterations 6
DILUPBiCGStab:  Solving for ILambda_15_0, Initial residual = 0.007008127, Final residual = 0.0006597185, No Iterations 3
Radiation solver iter: 13
DILUPBiCGStab:  Solving for ILambda_0_0, Initial residual = 0.004190035, Final residual = 2.962783e-18, No Iterations 1
DILUPBiCGStab:  Solving for ILambda_1_0, Initial residual = 0.001964725, Final residual = 9.415636e-19, No Iterations 1
DILUPBiCGStab:  Solving for ILambda_6_0, Initial residual = 0.00174796, Final residual = 0.0001575458, No Iterations 2
DILUPBiCGStab:  Solving for ILambda_7_0, Initial residual = 0.004260455, Final residual = 0.0004073413, No Iterations 2
DILUPBiCGStab:  Solving for ILambda_8_0, Initial residual = 0.005924419, Final residual = 3.92406e-18, No Iterations 1
DILUPBiCGStab:  Solving for ILambda_9_0, Initial residual = 0.003407801, Final residual = 2.984096e-18, No Iterations 1
DILUPBiCGStab:  Solving for ILambda_10_0, Initial residual = 0.001926087, Final residual = 2.449755e-18, No Iterations 1
DILUPBiCGStab:  Solving for ILambda_11_0, Initial residual = 0.0008137821, Final residual = 2.226667e-18, No Iterations 1
DILUPBiCGStab:  Solving for ILambda_12_0, Initial residual = 0.0008161218, Final residual = 3.183734e-05, No Iterations 4
DILUPBiCGStab:  Solving for ILambda_13_0, Initial residual = 0.00192842, Final residual = 0.000181041, No Iterations 6
DILUPBiCGStab:  Solving for ILambda_14_0, Initial residual = 0.003766702, Final residual = 0.0002863522, No Iterations 6
DILUPBiCGStab:  Solving for ILambda_15_0, Initial residual = 0.006108478, Final residual = 0.0005217906, No Iterations 3
Radiation solver iter: 14
DILUPBiCGStab:  Solving for ILambda_0_0, Initial residual = 0.003544086, Final residual = 2.524766e-18, No Iterations 1
DILUPBiCGStab:  Solving for ILambda_1_0, Initial residual = 0.001433191, Final residual = 6.321848e-19, No Iterations 1
DILUPBiCGStab:  Solving for ILambda_6_0, Initial residual = 0.001305605, Final residual = 0.0001101265, No Iterations 2
DILUPBiCGStab:  Solving for ILambda_7_0, Initial residual = 0.003620053, Final residual = 0.0002297181, No Iterations 3
DILUPBiCGStab:  Solving for ILambda_8_0, Initial residual = 0.005122403, Final residual = 3.695463e-18, No Iterations 1
DILUPBiCGStab:  Solving for ILambda_9_0, Initial residual = 0.002910177, Final residual = 2.628223e-18, No Iterations 1
DILUPBiCGStab:  Solving for ILambda_10_0, Initial residual = 0.001518592, Final residual = 1.994902e-18, No Iterations 1
DILUPBiCGStab:  Solving for ILambda_13_0, Initial residual = 0.001499459, Final residual = 0.000122123, No Iterations 6
DILUPBiCGStab:  Solving for ILambda_14_0, Initial residual = 0.003166015, Final residual = 0.0001907592, No Iterations 6
DILUPBiCGStab:  Solving for ILambda_15_0, Initial residual = 0.005310283, Final residual = 0.0002968023, No Iterations 4
GAMG:  Solving for p_rgh, Initial residual = 0.04039226, Final residual = 7.649121e-05, No Iterations 2
limitVelocity limitU Limited 0 (0%) of cells, with max limit 5
time step continuity errors : sum local = 0.0004083501, global = -6.692215e-17, cumulative = 1.626423e-15
rho min/max : 0.47326 0.9661784
DILUPBiCGStab:  Solving for omega, Initial residual = 0.0004621924, Final residual = 1.376272e-05, No Iterations 1
DILUPBiCGStab:  Solving for k, Initial residual = 0.0009202111, Final residual = 4.81551e-05, No Iterations 1
ExecutionTime = 0.61 s  ClockTime = 0 s

Time = 3002

DILUPBiCGStab:  Solving for h, Initial residual = 0.0001255065, Final residual = 5.426494e-09, No Iterations 1
limitTemperature limitT Lower limited 0 (0%) of cells, with min limit 280
limitTemperature limitT Upper limited 0 (0%) of cells, with max limit 1200
limitTemperature limitT Unlimited Tmin 414.3104
limitTemperature limitT Unlimited Tmax 490.5682
GAMG:  Solving for p_rgh, Initial residual = 0.03133592, Final residual = 5.901676e-05, No Iterations 2
limitVelocity limitU Limited 0 (0%) of cells, with max limit 5
time step continuity errors : sum local = 0.000328294, global = -1.312536e-17, cumulative = 1.613297e-15
rho min/max : 0.5539383 0.9606903
DILUPBiCGStab:  Solving for omega, Initial residual = 0.0003033823, Final residual = 1.042187e-05, No Iterations 1
DILUPBiCGStab:  Solving for k, Initial residual = 0.0008611412, Final residual = 4.81518e-05, No Iterations 1
ExecutionTime = 0.62 s  ClockTime = 0 s

Time = 3003

DILUPBiCGStab:  Solving for h, Initial residual = 0.0001018596, Final residual = 4.113953e-09, No Iterations 1
limitTemperature limitT Lower limited 0 (0%) of cells, with min limit 280
limitTemperature limitT Upper limited 0 (0%) of cells, with max limit 1200
limitTemperature limitT Unlimited Tmin 414.3152
limitTemperature limitT Unlimited Tmax 490.6979
Radiation solver iter: 0
DILUPBiCGStab:  Solving for ILambda_0_0, Initial residual = 0.3285232, Final residual = 3.286029e-15, No Iterations 1
DILUPBiCGStab:  Solving for ILambda_1_0, Initial residual = 0.5196869, Final residual = 3.769401e-15, No Iterations 1
DILUPBiCGStab:  Solving for ILambda_2_0, Initial residual = 0.6592244, Final residual = 3.620856e-15, No Iterations 1
DILUPBiCGStab:  Solving for ILambda_3_0, Initial residual = 0.7800975, Final residual = 3.848066e-15, No Iterations 1
DILUPBiCGStab:  Solving for ILambda_4_0, Initial residual = 0.789032, Final residual = 0.01236763, No Iterations 5
DILUPBiCGStab:  Solving for ILambda_5_0, Initial residual = 0.6827868, Final residual = 0.06443509, No Iterations 10
DILUPBiCGStab:  Solving for ILambda_6_0, Initial residual = 0.5575592, Final residual = 0.03719316, No Iterations 21
DILUPBiCGStab:  Solving for ILambda_7_0, Initial residual = 0.3637764, Final residual = 0.01397379, No Iterations 30
DILUPBiCGStab:  Solving for ILambda_8_0, Initial residual = 0.584326, Final residual = 5.189594e-15, No Iterations 1
DILUPBiCGStab:  Solving for ILambda_9_0, Initial residual = 0.7006936, Final residual = 4.765749e-15, No Iterations 1
DILUPBiCGStab:  Solving for ILambda_10_0, Initial residual = 0.76511, Final residual = 4.202982e-15, No Iterations 1
DILUPBiCGStab:  Solving for ILambda_11_0, Initial residual = 0.8120237, Final residual = 4.17583e-15, No Iterations 1
DILUPBiCGStab:  Solving for ILambda_12_0, Initial residual = 0.8122574, Final residual = 0.01151285, No Iterations 5
DILUPBiCGStab:  Solving for ILambda_13_0, Initial residual = 0.7562965, Final residual = 0.05962591, No Iterations 12
DILUPBiCGStab:  Solving for ILambda_14_0, Initial residual = 0.6778908, Final residual = 0.064435, No Iterations 19
DILUPBiCGStab:  Solving for ILambda_15_0, Initial residual = 0.5810065, Final residual = 0.006357065, No Iterations 32
Radiation solver iter: 1
DILUPBiCGStab:  Solving for ILambda_0_0, Initial residual = 0.151564, Final residual = 4.873009e-16, No Iterations 1
DILUPBiCGStab:  Solving for ILambda_1_0, Initial residual = 0.1929816, Final residual = 5.36682e-16, No Iterations 1
DILUPBiCGStab:  Solving for ILambda_2_0, Initial residual = 0.2414173, Final residual = 6.190336e-16, No Iterations 1
DILUPBiCGStab:  Solving for ILambda_3_0, Initial residual = 0.2668912, Final residual = 8.929337e-16, No Iterations 1
DILUPBiCGStab:  Solving for ILambda_4_0, Initial residual = 0.2951589, Final residual = 0.02823368, No Iterations 3
DILUPBiCGStab:  Solving for ILambda_5_0, Initial residual = 0.4105318, Final residual = 0.03997768, No Iterations 7
DILUPBiCGStab:  Solving for ILambda_6_0, Initial residual = 0.3108993, Final residual = 0.03077204, No Iterations 12
DILUPBiCGStab:  Solving for ILambda_7_0, Initial residual = 0.1933354, Final residual = 0.01754485, No Iterations 18
DILUPBiCGStab:  Solving for ILambda_8_0, Initial residual = 0.06788811, Final residual = 3.346923e-16, No Iterations 1
DILUPBiCGStab:  Solving for ILambda_9_0, Initial residual = 0.09308567, Final residual = 4.16976e-16, No Iterations 1
DILUPBiCGStab:  Solving for ILambda_10_0, Initial residual = 0.1278298, Final residual = 5.425774e-16, No Iterations 1
DILUPBiCGStab:  Solving for ILambda_11_0, Initial residual = 0.171329, Final residual = 7.628777e-16, No Iterations 1
DILUPBiCGStab:  Solving for ILambda_12_0, Initial residual = 0.2438537, Final residual = 0.01211012, No Iterations 4
DILUPBiCGStab:  Solving for ILambda_13_0, Initial residual = 0.3698549, Final residual = 0.03453812, No Iterations 7
DILUPBiCGStab:  Solving for ILambda_14_0, Initial residual = 0.3092761, Final residual = 0.02905397, No Iterations 11
DILUPBiCGStab:  Solving for ILambda_15_0, Initial residual = 0.142868, Final residual = 0.01341706, No Iterations 26
Radiation solver iter: 2
DILUPBiCGStab:  Solving for ILambda_0_0, Initial residual = 0.1094929, Final residual = 2.158555e-16, No Iterations 1
DILUPBiCGStab:  Solving for ILambda_1_0, Initial residual = 0.1207186, Final residual = 1.40139e-16, No Iterations 1
DILUPBiCGStab:  Solving for ILambda_2_0, Initial residual = 0.1333916, Final residual = 1.514352e-16, No Iterations 1
DILUPBiCGStab:  Solving for ILambda_3_0, Initial residual = 0.08345943, Final residual = 1.016114e-16, No Iterations 1
DILUPBiCGStab:  Solving for ILambda_4_0, Initial residual = 0.0918895, Final residual = 0.005805367, No Iterations 3
DILUPBiCGStab:  Solving for ILambda_5_0, Initial residual = 0.1742115, Final residual = 0.005875215, No Iterations 6
DILUPBiCGStab:  Solving for ILambda_6_0, Initial residual = 0.1518917, Final residual = 0.004442429, No Iterations 8
DILUPBiCGStab:  Solving for ILambda_7_0, Initial residual = 0.1350289, Final residual = 0.009306792, No Iterations 11
DILUPBiCGStab:  Solving for ILambda_8_0, Initial residual = 0.02963595, Final residual = 5.249083e-17, No Iterations 1
DILUPBiCGStab:  Solving for ILambda_9_0, Initial residual = 0.03984822, Final residual = 7.551313e-17, No Iterations 1
DILUPBiCGStab:  Solving for ILambda_10_0, Initial residual = 0.05029781, Final residual = 1.067194e-16, No Iterations 1
DILUPBiCGStab:  Solving for ILambda_11_0, Initial residual = 0.05305821, Final residual = 1.570508e-16, No Iterations 1
DILUPBiCGStab:  Solving for ILambda_12_0, Initial residual = 0.06500429, Final residual = 0.004502552, No Iterations 3
DILUPBiCGStab:  Solving for ILambda_13_0, Initial residual = 0.09833919, Final residual = 0.007715778, No Iterations 8
DILUPBiCGStab:  Solving for ILambda_14_0, Initial residual = 0.08953924, Final residual = 0.006734099, No Iterations 13
DILUPBiCGStab:  Solving for ILambda_15_0, Initial residual = 0.07554213, Final residual = 0.005158144, No Iterations 17
Radiation solver iter: 3
DILUPBiCGStab:  Solving for ILambda_0_0, Initial residual = 0.09447929, Final residual = 1.582149e-16, No Iterations 1
DILUPBiCGStab:  Solving for ILambda_1_0, Initial residual = 0.0951308, Final residual = 8.571725e-17, No Iterations 1
DILUPBiCGStab:  Solving for ILambda_2_0, Initial residual = 0.09407269, Final residual = 8.452285e-17, No Iterations 1
DILUPBiCGStab:  Solving for ILambda_3_0, Initial residual = 0.03587231, Final residual = 3.510429e-17, No Iterations 1
DILUPBiCGStab:  Solving for ILambda_4_0, Initial residual = 0.03317006, Final residual = 0.001894826, No Iterations 2
DILUPBiCGStab:  Solving for ILambda_5_0, Initial residual = 0.09461856, Final residual = 0.008785472, No Iterations 3
DILUPBiCGStab:  Solving for ILambda_6_0, Initial residual = 0.1099761, Final residual = 0.008989554, No Iterations 4
DILUPBiCGStab:  Solving for ILambda_7_0, Initial residual = 0.1021455, Final residual = 0.008536584, No Iterations 6
DILUPBiCGStab:  Solving for ILambda_8_0, Initial residual = 0.02236825, Final residual = 3.100723e-17, No Iterations 1
DILUPBiCGStab:  Solving for ILambda_9_0, Initial residual = 0.0331441, Final residual = 4.26494e-17, No Iterations 1
DILUPBiCGStab:  Solving for ILambda_10_0, Initial residual = 0.03919506, Final residual = 6.130664e-17, No Iterations 1
DILUPBiCGStab:  Solving for ILambda_11_0, Initial residual = 0.03195714, Final residual = 8.03045e-17, No Iterations 1
DILUPBiCGStab:  Solving for ILambda_12_0, Initial residual = 0.03770358, Final residual = 0.0004106966, No Iterations 5
DILUPBiCGStab:  Solving for ILambda_13_0, Initial residual = 0.05962707, Final residual = 0.005859072, No Iterations 7
DILUPBiCGStab:  Solving for ILambda_14_0, Initial residual = 0.05843972, Final residual = 0.005648434, No Iterations 8
DILUPBiCGStab:  Solving for ILambda_15_0, Initial residual = 0.05923663, Final residual = 0.005503112, No Iterations 7
Radiation solver iter: 4
DILUPBiCGStab:  Solving for ILambda_0_0, Initial residual = 0.08263239, Final residual = 1.249404e-16, No Iterations 1
DILUPBiCGStab:  Solving for ILambda_1_0, Initial residual = 0.07950656, Final residual = 6.571897e-17, No Iterations 1
DILUPBiCGStab:  Solving for ILambda_2_0, Initial residual = 0.06380311, Final residual = 4.994962e-17, No Iterations 1
DILUPBiCGStab:  Solving for ILambda_3_0, Initial residual = 0.01463403, Final residual = 1.143989e-17, No Iterations 1
DILUPBiCGStab:  Solving for ILambda_4_0, Initial residual = 0.01394522, Final residual = 0.001169692, No Iterations 2
DILUPBiCGStab:  Solving for ILambda_5_0, Initial residual = 0.06310368, Final residual = 0.005249247, No Iterations 3
DILUPBiCGStab:  Solving for ILambda_6_0, Initial residual = 0.0871592, Final residual = 0.003626443, No Iterations 5
DILUPBiCGStab:  Solving for ILambda_7_0, Initial residual = 0.08218748, Final residual = 0.006220696, No Iterations 6
DILUPBiCGStab:  Solving for ILambda_8_0, Initial residual = 0.01883521, Final residual = 2.054827e-17, No Iterations 1
DILUPBiCGStab:  Solving for ILambda_9_0, Initial residual = 0.02901867, Final residual = 3.400281e-17, No Iterations 1
DILUPBiCGStab:  Solving for ILambda_10_0, Initial residual = 0.03057657, Final residual = 4.343709e-17, No Iterations 1
DILUPBiCGStab:  Solving for ILambda_11_0, Initial residual = 0.02042347, Final residual = 5.25655e-17, No Iterations 1
DILUPBiCGStab:  Solving for ILambda_12_0, Initial residual = 0.02429426, Final residual = 0.002400995, No Iterations 3
DILUPBiCGStab:  Solving for ILambda_13_0, Initial residual = 0.04443109, Final residual = 0.001610147, No Iterations 8
DILUPBiCGStab:  Solving for ILambda_14_0, Initial residual = 0.05278896, Final residual = 0.0050768, No Iterations 7
DILUPBiCGStab:  Solving for ILambda_15_0, Initial residual = 0.05465086, Final residual = 0.003753917, No Iterations 8
Radiation solver iter: 5
DILUPBiCGStab:  Solving for ILambda_0_0, Initial residual = 0.07209633, Final residual = 9.681093e-17, No Iterations 1
DILUPBiCGStab:  Solving for ILambda_1_0, Initial residual = 0.06777841, Final residual = 5.198889e-17, No Iterations 1
DILUPBiCGStab:  Solving for ILambda_2_0, Initial residual = 0.04272549, Final residual = 2.925932e-17, No Iterations 1
DILUPBiCGStab:  Solving for ILambda_3_0, Initial residual = 0.00580752, Final residual = 4.16577e-18, No Iterations 1
DILUPBiCGStab:  Solving for ILambda_4_0, Initial residual = 0.005772055, Final residual = 0.0004162794, No Iterations 2
DILUPBiCGStab:  Solving for ILambda_5_0, Initial residual = 0.04280403, Final residual = 0.002758911, No Iterations 3
DILUPBiCGStab:  Solving for ILambda_6_0, Initial residual = 0.06740751, Final residual = 0.005840462, No Iterations 3
DILUPBiCGStab:  Solving for ILambda_7_0, Initial residual = 0.06812393, Final residual = 0.003325338, No Iterations 6
DILUPBiCGStab:  Solving for ILambda_8_0, Initial residual = 0.01618699, Final residual = 1.633847e-17, No Iterations 1
DILUPBiCGStab:  Solving for ILambda_9_0, Initial residual = 0.02454608, Final residual = 2.547975e-17, No Iterations 1
DILUPBiCGStab:  Solving for ILambda_10_0, Initial residual = 0.02272354, Final residual = 3.217143e-17, No Iterations 1
DILUPBiCGStab:  Solving for ILambda_11_0, Initial residual = 0.0136082, Final residual = 3.829785e-17, No Iterations 1
DILUPBiCGStab:  Solving for ILambda_12_0, Initial residual = 0.01643905, Final residual = 0.001412806, No Iterations 4
DILUPBiCGStab:  Solving for ILambda_13_0, Initial residual = 0.03322244, Final residual = 0.002657994, No Iterations 7
DILUPBiCGStab:  Solving for ILambda_14_0, Initial residual = 0.04669094, Final residual = 0.002019678, No Iterations 9
DILUPBiCGStab:  Solving for ILambda_15_0, Initial residual = 0.04912678, Final residual = 0.004850298, No Iterations 6
Radiation solver iter: 6
DILUPBiCGStab:  Solving for ILambda_0_0, Initial residual = 0.06217569, Final residual = 7.366928e-17, No Iterations 1
DILUPBiCGStab:  Solving for ILambda_1_0, Initial residual = 0.05706666, Final residual = 5.125692e-17, No Iterations 1
DILUPBiCGStab:  Solving for ILambda_2_0, Initial residual = 0.02756511, Final residual = 1.853057e-17, No Iterations 1
DILUPBiCGStab:  Solving for ILambda_3_0, Initial residual = 0.002257005, Final residual = 1.533947e-18, No Iterations 1
DILUPBiCGStab:  Solving for ILambda_4_0, Initial residual = 0.002208235, Final residual = 0.000194431, No Iterations 2
DILUPBiCGStab:  Solving for ILambda_5_0, Initial residual = 0.02842351, Final residual = 0.002768628, No Iterations 2
DILUPBiCGStab:  Solving for ILambda_6_0, Initial residual = 0.05160057, Final residual = 0.00126588, No Iterations 4
DILUPBiCGStab:  Solving for ILambda_7_0, Initial residual = 0.05664585, Final residual = 0.004109054, No Iterations 4
DILUPBiCGStab:  Solving for ILambda_8_0, Initial residual = 0.01385135, Final residual = 1.353969e-17, No Iterations 1
DILUPBiCGStab:  Solving for ILambda_9_0, Initial residual = 0.02042197, Final residual = 2.048489e-17, No Iterations 1
DILUPBiCGStab:  Solving for ILambda_10_0, Initial residual = 0.01636676, Final residual = 2.209861e-17, No Iterations 1
DILUPBiCGStab:  Solving for ILambda_11_0, Initial residual = 0.009988848, Final residual = 2.600523e-17, No Iterations 1
DILUPBiCGStab:  Solving for ILambda_12_0, Initial residual = 0.01176165, Final residual = 0.0009195628, No Iterations 3
DILUPBiCGStab:  Solving for ILambda_13_0, Initial residual = 0.02567645, Final residual = 0.002181542, No Iterations 6
DILUPBiCGStab:  Solving for ILambda_14_0, Initial residual = 0.03935459, Final residual = 0.003384298, No Iterations 6
DILUPBiCGStab:  Solving for ILambda_15_0, Initial residual = 0.04325726, Final residual = 0.003103751, No Iterations 7
Radiation solver iter: 7
DILUPBiCGStab:  Solving for ILambda_0_0, Initial residual = 0.05280294, Final residual = 5.806329e-17, No Iterations 1
DILUPBiCGStab:  Solving for ILambda_1_0, Initial residual = 0.04680659, Final residual = 3.581781e-17, No Iterations 1
DILUPBiCGStab:  Solving for ILambda_2_0, Initial residual = 0.01720159, Final residual = 1.104459e-17, No Iterations 1
DILUPBiCGStab:  Solving for ILambda_3_0, Initial residual = 0.000859689, Final residual = 9.000427e-19, No Iterations 1
DILUPBiCGStab:  Solving for ILambda_4_0, Initial residual = 0.0008923148, Final residual = 7.14934e-05, No Iterations 2
DILUPBiCGStab:  Solving for ILambda_5_0, Initial residual = 0.01833423, Final residual = 0.001057544, No Iterations 3
DILUPBiCGStab:  Solving for ILambda_6_0, Initial residual = 0.03963774, Final residual = 0.003059295, No Iterations 2
DILUPBiCGStab:  Solving for ILambda_7_0, Initial residual = 0.04812205, Final residual = 0.002955231, No Iterations 4
DILUPBiCGStab:  Solving for ILambda_8_0, Initial residual = 0.01179859, Final residual = 9.708736e-18, No Iterations 1
DILUPBiCGStab:  Solving for ILambda_9_0, Initial residual = 0.01679734, Final residual = 1.588118e-17, No Iterations 1
DILUPBiCGStab:  Solving for ILambda_10_0, Initial residual = 0.01184892, Final residual = 1.457008e-17, No Iterations 1
DILUPBiCGStab:  Solving for ILambda_11_0, Initial residual = 0.00809741, Final residual = 2.055741e-17, No Iterations 1
DILUPBiCGStab:  Solving for ILambda_12_0, Initial residual = 0.009821561, Final residual = 0.0007761143, No Iterations 3
DILUPBiCGStab:  Solving for ILambda_13_0, Initial residual = 0.01967081, Final residual = 0.001863742, No Iterations 6
DILUPBiCGStab:  Solving for ILambda_14_0, Initial residual = 0.03320082, Final residual = 0.000927772, No Iterations 9
DILUPBiCGStab:  Solving for ILambda_15_0, Initial residual = 0.03675113, Final residual = 0.003657592, No Iterations 5
Radiation solver iter: 8
DILUPBiCGStab:  Solving for ILambda_0_0, Initial residual = 0.04436722, Final residual = 4.39018e-17, No Iterations 1
DILUPBiCGStab:  Solving for ILambda_1_0, Initial residual = 0.03738058, Final residual = 2.267746e-17, No Iterations 1
DILUPBiCGStab:  Solving for ILambda_2_0, Initial residual = 0.01047008, Final residual = 4.935673e-18, No Iterations 1
DILUPBiCGStab:  Solving for ILambda_5_0, Initial residual = 0.01135575, Final residual = 0.0008747173, No Iterations 2
DILUPBiCGStab:  Solving for ILambda_6_0, Initial residual = 0.03117357, Final residual = 0.002025308, No Iterations 2
DILUPBiCGStab:  Solving for ILambda_7_0, Initial residual = 0.04072106, Final residual = 0.00217037, No Iterations 4
DILUPBiCGStab:  Solving for ILambda_8_0, Initial residual = 0.009980676, Final residual = 7.509668e-18, No Iterations 1
DILUPBiCGStab:  Solving for ILambda_9_0, Initial residual = 0.01372193, Final residual = 1.307981e-17, No Iterations 1
DILUPBiCGStab:  Solving for ILambda_10_0, Initial residual = 0.009004585, Final residual = 1.104314e-17, No Iterations 1
DILUPBiCGStab:  Solving for ILambda_11_0, Initial residual = 0.006677707, Final residual = 1.679218e-17, No Iterations 1
DILUPBiCGStab:  Solving for ILambda_12_0, Initial residual = 0.007799551, Final residual = 9.21113e-05, No Iterations 5
DILUPBiCGStab:  Solving for ILambda_13_0, Initial residual = 0.01529516, Final residual = 0.0006549631, No Iterations 8
DILUPBiCGStab:  Solving for ILambda_14_0, Initial residual = 0.02675463, Final residual = 0.002490942, No Iterations 4
DILUPBiCGStab:  Solving for ILambda_15_0, Initial residual = 0.03139383, Final residual = 0.002684617, No Iterations 5
Radiation solver iter: 9
DILUPBiCGStab:  Solving for ILambda_0_0, Initial residual = 0.0371172, Final residual = 3.72785e-17, No Iterations 1
DILUPBiCGStab:  Solving for ILambda_1_0, Initial residual = 0.02913779, Final residual = 1.491547e-17, No Iterations 1
DILUPBiCGStab:  Solving for ILambda_2_0, Initial residual = 0.006265608, Final residual = 3.52936e-18, No Iterations 1
DILUPBiCGStab:  Solving for ILambda_5_0, Initial residual = 0.006894101, Final residual = 0.0005790656, No Iterations 2
DILUPBiCGStab:  Solving for ILambda_6_0, Initial residual = 0.02451079, Final residual = 0.001736357, No Iterations 2
DILUPBiCGStab:  Solving for ILambda_7_0, Initial residual = 0.03426734, Final residual = 0.003135608, No Iterations 3
DILUPBiCGStab:  Solving for ILambda_8_0, Initial residual = 0.008396724, Final residual = 6.598763e-18, No Iterations 1
DILUPBiCGStab:  Solving for ILambda_9_0, Initial residual = 0.01116086, Final residual = 8.652595e-18, No Iterations 1
DILUPBiCGStab:  Solving for ILambda_10_0, Initial residual = 0.007209105, Final residual = 8.977549e-18, No Iterations 1
DILUPBiCGStab:  Solving for ILambda_11_0, Initial residual = 0.005262646, Final residual = 1.261897e-17, No Iterations 1
DILUPBiCGStab:  Solving for ILambda_12_0, Initial residual = 0.006123828, Final residual = 0.0002862571, No Iterations 4
DILUPBiCGStab:  Solving for ILambda_13_0, Initial residual = 0.01175986, Final residual = 0.001082971, No Iterations 6
DILUPBiCGStab:  Solving for ILambda_14_0, Initial residual = 0.02208986, Final residual = 0.00196312, No Iterations 5
DILUPBiCGStab:  Solving for ILambda_15_0, Initial residual = 0.02650179, Final residual = 0.002528504, No Iterations 5
Radiation solver iter: 10
DILUPBiCGStab:  Solving for ILambda_0_0, Initial residual = 0.03110869, Final residual = 2.692895e-17, No Iterations 1
DILUPBiCGStab:  Solving for ILambda_1_0, Initial residual = 0.02239493, Final residual = 1.359173e-17, No Iterations 1
DILUPBiCGStab:  Solving for ILambda_2_0, Initial residual = 0.003695635, Final residual = 1.514168e-18, No Iterations 1
DILUPBiCGStab:  Solving for ILambda_5_0, Initial residual = 0.004057802, Final residual = 0.0002582244, No Iterations 2
DILUPBiCGStab:  Solving for ILambda_6_0, Initial residual = 0.01917623, Final residual = 0.001522871, No Iterations 2
DILUPBiCGStab:  Solving for ILambda_7_0, Initial residual = 0.02894357, Final residual = 0.002849034, No Iterations 3
DILUPBiCGStab:  Solving for ILambda_8_0, Initial residual = 0.007126268, Final residual = 4.762777e-18, No Iterations 1
DILUPBiCGStab:  Solving for ILambda_9_0, Initial residual = 0.009086557, Final residual = 6.862548e-18, No Iterations 1
DILUPBiCGStab:  Solving for ILambda_10_0, Initial residual = 0.006026235, Final residual = 7.496647e-18, No Iterations 1
DILUPBiCGStab:  Solving for ILambda_11_0, Initial residual = 0.004129333, Final residual = 1.006612e-17, No Iterations 1
DILUPBiCGStab:  Solving for ILambda_12_0, Initial residual = 0.004901315, Final residual = 0.0002051458, No Iterations 4
DILUPBiCGStab:  Solving for ILambda_13_0, Initial residual = 0.009678356, Final residual = 0.0009273776, No Iterations 6
DILUPBiCGStab:  Solving for ILambda_14_0, Initial residual = 0.01832295, Final residual = 0.001498605, No Iterations 4
DILUPBiCGStab:  Solving for ILambda_15_0, Initial residual = 0.0226888, Final residual = 0.001838192, No Iterations 6
Radiation solver iter: 11
DILUPBiCGStab:  Solving for ILambda_0_0, Initial residual = 0.02614299, Final residual = 2.266038e-17, No Iterations 1
DILUPBiCGStab:  Solving for ILambda_1_0, Initial residual = 0.01697766, Final residual = 7.391123e-18, No Iterations 1
DILUPBiCGStab:  Solving for ILambda_2_0, Initial residual = 0.002119392, Final residual = 9.509489e-19, No Iterations 1
DILUPBiCGStab:  Solving for ILambda_5_0, Initial residual = 0.002329088, Final residual = 0.0001542268, No Iterations 2
DILUPBiCGStab:  Solving for ILambda_6_0, Initial residual = 0.01483879, Final residual = 0.001153822, No Iterations 2
DILUPBiCGStab:  Solving for ILambda_7_0, Initial residual = 0.02430665, Final residual = 0.002265317, No Iterations 4
DILUPBiCGStab:  Solving for ILambda_8_0, Initial residual = 0.006107676, Final residual = 5.698603e-18, No Iterations 1
DILUPBiCGStab:  Solving for ILambda_9_0, Initial residual = 0.00740793, Final residual = 6.003671e-18, No Iterations 1
DILUPBiCGStab:  Solving for ILambda_10_0, Initial residual = 0.005074011, Final residual = 6.135187e-18, No Iterations 1
DILUPBiCGStab:  Solving for ILambda_11_0, Initial residual = 0.003219634, Final residual = 7.592849e-18, No Iterations 1
DILUPBiCGStab:  Solving for ILambda_12_0, Initial residual = 0.00377867, Final residual = 0.0001573755, No Iterations 4
DILUPBiCGStab:  Solving for ILambda_13_0, Initial residual = 0.007968515, Final residual = 0.000690851, No Iterations 6
DILUPBiCGStab:  Solving for ILambda_14_0, Initial residual = 0.01502551, Final residual = 0.000988258, No Iterations 5
DILUPBiCGStab:  Solving for ILambda_15_0, Initial residual = 0.01955413, Final residual = 0.001509978, No Iterations 4
Radiation solver iter: 12
DILUPBiCGStab:  Solving for ILambda_0_0, Initial residual = 0.02212166, Final residual = 1.940107e-17, No Iterations 1
DILUPBiCGStab:  Solving for ILambda_1_0, Initial residual = 0.01269221, Final residual = 9.085039e-18, No Iterations 1
DILUPBiCGStab:  Solving for ILambda_2_0, Initial residual = 0.001187916, Final residual = 5.36074e-19, No Iterations 1
DILUPBiCGStab:  Solving for ILambda_5_0, Initial residual = 0.001308704, Final residual = 8.930135e-05, No Iterations 2
DILUPBiCGStab:  Solving for ILambda_6_0, Initial residual = 0.01126805, Final residual = 0.0007162146, No Iterations 2
DILUPBiCGStab:  Solving for ILambda_7_0, Initial residual = 0.02030742, Final residual = 0.001055284, No Iterations 4
DILUPBiCGStab:  Solving for ILambda_8_0, Initial residual = 0.005255951, Final residual = 3.774757e-18, No Iterations 1
DILUPBiCGStab:  Solving for ILambda_9_0, Initial residual = 0.006024053, Final residual = 3.961976e-18, No Iterations 1
DILUPBiCGStab:  Solving for ILambda_10_0, Initial residual = 0.004181936, Final residual = 4.626963e-18, No Iterations 1
DILUPBiCGStab:  Solving for ILambda_11_0, Initial residual = 0.002477098, Final residual = 5.93213e-18, No Iterations 1
DILUPBiCGStab:  Solving for ILambda_12_0, Initial residual = 0.002892762, Final residual = 0.0001074283, No Iterations 4
DILUPBiCGStab:  Solving for ILambda_13_0, Initial residual = 0.006512332, Final residual = 0.0004601148, No Iterations 6
DILUPBiCGStab:  Solving for ILambda_14_0, Initial residual = 0.01236015, Final residual = 0.001067106, No Iterations 4
DILUPBiCGStab:  Solving for ILambda_15_0, Initial residual = 0.01689241, Final residual = 0.00166172, No Iterations 3
Radiation solver iter: 13
DILUPBiCGStab:  Solving for ILambda_0_0, Initial residual = 0.01870817, Final residual = 1.366489e-17, No Iterations 1
DILUPBiCGStab:  Solving for ILambda_1_0, Initial residual = 0.009360138, Final residual = 3.551207e-18, No Iterations 1
DILUPBiCGStab:  Solving for ILambda_2_0, Initial residual = 0.0006530809, Final residual = 3.13676e-19, No Iterations 1
DILUPBiCGStab:  Solving for ILambda_5_0, Initial residual = 0.0007315943, Final residual = 9.203567e-05, No Iterations 2
DILUPBiCGStab:  Solving for ILambda_6_0, Initial residual = 0.008361822, Final residual = 0.0004107726, No Iterations 2
DILUPBiCGStab:  Solving for ILambda_7_0, Initial residual = 0.01670277, Final residual = 0.001567264, No Iterations 2
DILUPBiCGStab:  Solving for ILambda_8_0, Initial residual = 0.004510432, Final residual = 2.949523e-18, No Iterations 1
DILUPBiCGStab:  Solving for ILambda_9_0, Initial residual = 0.004890602, Final residual = 3.163771e-18, No Iterations 1
DILUPBiCGStab:  Solving for ILambda_10_0, Initial residual = 0.00335905, Final residual = 3.641211e-18, No Iterations 1
DILUPBiCGStab:  Solving for ILambda_11_0, Initial residual = 0.001882758, Final residual = 4.593123e-18, No Iterations 1
DILUPBiCGStab:  Solving for ILambda_12_0, Initial residual = 0.00219665, Final residual = 7.79945e-05, No Iterations 4
DILUPBiCGStab:  Solving for ILambda_13_0, Initial residual = 0.005156148, Final residual = 0.0001943797, No Iterations 8
DILUPBiCGStab:  Solving for ILambda_14_0, Initial residual = 0.01030746, Final residual = 0.0008290687, No Iterations 4
DILUPBiCGStab:  Solving for ILambda_15_0, Initial residual = 0.01463457, Final residual = 0.0008431064, No Iterations 4
Radiation solver iter: 14
DILUPBiCGStab:  Solving for ILambda_0_0, Initial residual = 0.01585333, Final residual = 1.077381e-17, No Iterations 1
DILUPBiCGStab:  Solving for ILambda_1_0, Initial residual = 0.006778561, Final residual = 3.030532e-18, No Iterations 1
DILUPBiCGStab:  Solving for ILambda_6_0, Initial residual = 0.0061009, Final residual = 0.00051564, No Iterations 2
DILUPBiCGStab:  Solving for ILambda_7_0, Initial residual = 0.01395356, Final residual = 0.001342934, No Iterations 2
DILUPBiCGStab:  Solving for ILambda_8_0, Initial residual = 0.003840466, Final residual = 2.686788e-18, No Iterations 1
DILUPBiCGStab:  Solving for ILambda_9_0, Initial residual = 0.003975016, Final residual = 2.826541e-18, No Iterations 1
DILUPBiCGStab:  Solving for ILambda_10_0, Initial residual = 0.002643211, Final residual = 3.206972e-18, No Iterations 1
DILUPBiCGStab:  Solving for ILambda_11_0, Initial residual = 0.001429475, Final residual = 3.377247e-18, No Iterations 1
DILUPBiCGStab:  Solving for ILambda_12_0, Initial residual = 0.001667064, Final residual = 5.873241e-05, No Iterations 4
DILUPBiCGStab:  Solving for ILambda_13_0, Initial residual = 0.003999192, Final residual = 0.0003956092, No Iterations 6
DILUPBiCGStab:  Solving for ILambda_14_0, Initial residual = 0.00855669, Final residual = 0.0007478631, No Iterations 4
DILUPBiCGStab:  Solving for ILambda_15_0, Initial residual = 0.01248569, Final residual = 0.000361494, No Iterations 5
GAMG:  Solving for p_rgh, Initial residual = 0.0244055, Final residual = 4.833342e-05, No Iterations 2
limitVelocity limitU Limited 0 (0%) of cells, with max limit 5
time step continuity errors : sum local = 0.0002750276, global = 2.143788e-17, cumulative = 1.634735e-15
rho min/max : 0.5842547 0.9556952
DILUPBiCGStab:  Solving for omega, Initial residual = 0.0002951221, Final residual = 9.224123e-06, No Iterations 1
DILUPBiCGStab:  Solving for k, Initial residual = 0.0008371796, Final residual = 4.532476e-05, No Iterations 1
ExecutionTime = 1.1 s  ClockTime = 1 s

Time = 3004

DILUPBiCGStab:  Solving for h, Initial residual = 8.065891e-05, Final residual = 2.612357e-09, No Iterations 1
limitTemperature limitT Lower limited 0 (0%) of cells, with min limit 280
limitTemperature limitT Upper limited 0 (0%) of cells, with max limit 1200
limitTemperature limitT Unlimited Tmin 414.3222
limitTemperature limitT Unlimited Tmax 490.7739
GAMG:  Solving for p_rgh, Initial residual = 0.01775349, Final residual = 3.981434e-05, No Iterations 2
limitVelocity limitU Limited 0 (0%) of cells, with max limit 5
time step continuity errors : sum local = 0.0002332996, global = 6.634246e-18, cumulative = 1.64137e-15
rho min/max : 0.5946053 0.9574065
DILUPBiCGStab:  Solving for omega, Initial residual = 0.0002407603, Final residual = 7.985111e-06, No Iterations 1
DILUPBiCGStab:  Solving for k, Initial residual = 0.0007202067, Final residual = 3.566814e-05, No Iterations 1
ExecutionTime = 1.12 s  ClockTime = 1 s

Time = 3005

DILUPBiCGStab:  Solving for h, Initial residual = 8.652586e-05, Final residual = 3.354598e-09, No Iterations 1
limitTemperature limitT Lower limited 0 (0%) of cells, with min limit 280
limitTemperature limitT Upper limited 0 (0%) of cells, with max limit 1200
limitTemperature limitT Unlimited Tmin 414.3259
limitTemperature limitT Unlimited Tmax 490.867
GAMG:  Solving for p_rgh, Initial residual = 0.01210513, Final residual = 3.264691e-05, No Iterations 2
limitVelocity limitU Limited 0 (0%) of cells, with max limit 5
time step continuity errors : sum local = 0.0001969603, global = -9.697307e-18, cumulative = 1.631672e-15
rho min/max : 0.5885721 0.9589863
DILUPBiCGStab:  Solving for omega, Initial residual = 0.0001899178, Final residual = 6.978635e-06, No Iterations 1
DILUPBiCGStab:  Solving for k, Initial residual = 0.0007218176, Final residual = 3.499998e-05, No Iterations 1
ExecutionTime = 1.13 s  ClockTime = 1 s

Time = 3006

DILUPBiCGStab:  Solving for h, Initial residual = 9.472801e-05, Final residual = 4.212785e-09, No Iterations 1
limitTemperature limitT Lower limited 0 (0%) of cells, with min limit 280
limitTemperature limitT Upper limited 0 (0%) of cells, with max limit 1200
limitTemperature limitT Unlimited Tmin 414.3284
limitTemperature limitT Unlimited Tmax 490.9758
Radiation solver iter: 0
DILUPBiCGStab:  Solving for ILambda_0_0, Initial residual = 0.215284, Final residual = 2.076608e-15, No Iterations 1
DILUPBiCGStab:  Solving for ILambda_1_0, Initial residual = 0.3758834, Final residual = 2.593344e-15, No Iterations 1
DILUPBiCGStab:  Solving for ILambda_2_0, Initial residual = 0.4944034, Final residual = 2.860428e-15, No Iterations 1
DILUPBiCGStab:  Solving for ILambda_3_0, Initial residual = 0.6180695, Final residual = 3.359759e-15, No Iterations 1
DILUPBiCGStab:  Solving for ILambda_4_0, Initial residual = 0.6329859, Final residual = 0.01614105, No Iterations 5
DILUPBiCGStab:  Solving for ILambda_5_0, Initial residual = 0.5090411, Final residual = 0.04336779, No Iterations 10
DILUPBiCGStab:  Solving for ILambda_6_0, Initial residual = 0.3839381, Final residual = 0.005544845, No Iterations 19
DILUPBiCGStab:  Solving for ILambda_7_0, Initial residual = 0.2538821, Final residual = 0.01375952, No Iterations 30
DILUPBiCGStab:  Solving for ILambda_8_0, Initial residual = 0.170842, Final residual = 1.374752e-15, No Iterations 1
DILUPBiCGStab:  Solving for ILambda_9_0, Initial residual = 0.3125927, Final residual = 1.955405e-15, No Iterations 1
DILUPBiCGStab:  Solving for ILambda_10_0, Initial residual = 0.4421632, Final residual = 2.297869e-15, No Iterations 1
DILUPBiCGStab:  Solving for ILambda_11_0, Initial residual = 0.5740485, Final residual = 2.825476e-15, No Iterations 1
DILUPBiCGStab:  Solving for ILambda_12_0, Initial residual = 0.6207462, Final residual = 0.05070236, No Iterations 5
DILUPBiCGStab:  Solving for ILambda_13_0, Initial residual = 0.5513536, Final residual = 0.009350085, No Iterations 10
DILUPBiCGStab:  Solving for ILambda_14_0, Initial residual = 0.4666988, Final residual = 0.009846123, No Iterations 20
DILUPBiCGStab:  Solving for ILambda_15_0, Initial residual = 0.3491497, Final residual = 0.01348231, No Iterations 26
Radiation solver iter: 1
DILUPBiCGStab:  Solving for ILambda_0_0, Initial residual = 0.08565033, Final residual = 2.235766e-16, No Iterations 1
DILUPBiCGStab:  Solving for ILambda_1_0, Initial residual = 0.1254789, Final residual = 2.599461e-16, No Iterations 1
DILUPBiCGStab:  Solving for ILambda_2_0, Initial residual = 0.1585869, Final residual = 3.08526e-16, No Iterations 1
DILUPBiCGStab:  Solving for ILambda_3_0, Initial residual = 0.1476034, Final residual = 3.508775e-16, No Iterations 1
DILUPBiCGStab:  Solving for ILambda_4_0, Initial residual = 0.1554617, Final residual = 0.01489069, No Iterations 3
DILUPBiCGStab:  Solving for ILambda_5_0, Initial residual = 0.1947584, Final residual = 0.009079452, No Iterations 7
DILUPBiCGStab:  Solving for ILambda_6_0, Initial residual = 0.1206056, Final residual = 0.002992092, No Iterations 13
DILUPBiCGStab:  Solving for ILambda_7_0, Initial residual = 0.09366821, Final residual = 0.002970279, No Iterations 17
DILUPBiCGStab:  Solving for ILambda_8_0, Initial residual = 0.02429472, Final residual = 7.426476e-17, No Iterations 1
DILUPBiCGStab:  Solving for ILambda_9_0, Initial residual = 0.03053888, Final residual = 8.294177e-17, No Iterations 1
DILUPBiCGStab:  Solving for ILambda_10_0, Initial residual = 0.04025663, Final residual = 1.099831e-16, No Iterations 1
DILUPBiCGStab:  Solving for ILambda_11_0, Initial residual = 0.05170019, Final residual = 1.834955e-16, No Iterations 1
DILUPBiCGStab:  Solving for ILambda_12_0, Initial residual = 0.1674223, Final residual = 0.009997537, No Iterations 4
DILUPBiCGStab:  Solving for ILambda_13_0, Initial residual = 0.07880885, Final residual = 0.003865745, No Iterations 10
DILUPBiCGStab:  Solving for ILambda_14_0, Initial residual = 0.07749158, Final residual = 0.005108018, No Iterations 13
DILUPBiCGStab:  Solving for ILambda_15_0, Initial residual = 0.08405118, Final residual = 0.003765979, No Iterations 26
Radiation solver iter: 2
DILUPBiCGStab:  Solving for ILambda_0_0, Initial residual = 0.06569755, Final residual = 1.265017e-16, No Iterations 1
DILUPBiCGStab:  Solving for ILambda_1_0, Initial residual = 0.09086686, Final residual = 9.705499e-17, No Iterations 1
DILUPBiCGStab:  Solving for ILambda_2_0, Initial residual = 0.1041983, Final residual = 1.177961e-16, No Iterations 1
DILUPBiCGStab:  Solving for ILambda_3_0, Initial residual = 0.06276799, Final residual = 7.336339e-17, No Iterations 1
DILUPBiCGStab:  Solving for ILambda_4_0, Initial residual = 0.06296207, Final residual = 0.0001027744, No Iterations 5
DILUPBiCGStab:  Solving for ILambda_5_0, Initial residual = 0.1013965, Final residual = 0.00151437, No Iterations 7
DILUPBiCGStab:  Solving for ILambda_6_0, Initial residual = 0.08773603, Final residual = 0.003808582, No Iterations 8
DILUPBiCGStab:  Solving for ILambda_7_0, Initial residual = 0.06266094, Final residual = 0.005542594, No Iterations 7
DILUPBiCGStab:  Solving for ILambda_8_0, Initial residual = 0.01544642, Final residual = 2.09103e-17, No Iterations 1
DILUPBiCGStab:  Solving for ILambda_9_0, Initial residual = 0.02233307, Final residual = 3.075016e-17, No Iterations 1
DILUPBiCGStab:  Solving for ILambda_10_0, Initial residual = 0.03135141, Final residual = 5.627299e-17, No Iterations 1
DILUPBiCGStab:  Solving for ILambda_11_0, Initial residual = 0.03573778, Final residual = 9.983595e-17, No Iterations 1
DILUPBiCGStab:  Solving for ILambda_12_0, Initial residual = 0.04795162, Final residual = 0.001031711, No Iterations 5
DILUPBiCGStab:  Solving for ILambda_13_0, Initial residual = 0.05542768, Final residual = 0.004148551, No Iterations 7
DILUPBiCGStab:  Solving for ILambda_14_0, Initial residual = 0.05576101, Final residual = 0.0001642502, No Iterations 16
DILUPBiCGStab:  Solving for ILambda_15_0, Initial residual = 0.05331495, Final residual = 0.005152113, No Iterations 11
Radiation solver iter: 3
DILUPBiCGStab:  Solving for ILambda_0_0, Initial residual = 0.05318138, Final residual = 8.753233e-17, No Iterations 1
DILUPBiCGStab:  Solving for ILambda_1_0, Initial residual = 0.06737126, Final residual = 6.072154e-17, No Iterations 1
DILUPBiCGStab:  Solving for ILambda_2_0, Initial residual = 0.06802112, Final residual = 5.738326e-17, No Iterations 1
DILUPBiCGStab:  Solving for ILambda_3_0, Initial residual = 0.02648624, Final residual = 2.935561e-17, No Iterations 1
DILUPBiCGStab:  Solving for ILambda_4_0, Initial residual = 0.02697762, Final residual = 0.002105454, No Iterations 2
DILUPBiCGStab:  Solving for ILambda_5_0, Initial residual = 0.07114674, Final residual = 0.007078995, No Iterations 4
DILUPBiCGStab:  Solving for ILambda_6_0, Initial residual = 0.06801656, Final residual = 0.004029619, No Iterations 5
DILUPBiCGStab:  Solving for ILambda_7_0, Initial residual = 0.04757202, Final residual = 0.001138433, No Iterations 9
DILUPBiCGStab:  Solving for ILambda_8_0, Initial residual = 0.01289513, Final residual = 1.301894e-17, No Iterations 1
DILUPBiCGStab:  Solving for ILambda_9_0, Initial residual = 0.02074074, Final residual = 2.482251e-17, No Iterations 1
DILUPBiCGStab:  Solving for ILambda_10_0, Initial residual = 0.02774527, Final residual = 4.325943e-17, No Iterations 1
DILUPBiCGStab:  Solving for ILambda_11_0, Initial residual = 0.02522644, Final residual = 6.302991e-17, No Iterations 1
DILUPBiCGStab:  Solving for ILambda_12_0, Initial residual = 0.03029161, Final residual = 0.002360868, No Iterations 4
DILUPBiCGStab:  Solving for ILambda_13_0, Initial residual = 0.04659043, Final residual = 0.003754889, No Iterations 8
DILUPBiCGStab:  Solving for ILambda_14_0, Initial residual = 0.04920188, Final residual = 0.004504724, No Iterations 10
DILUPBiCGStab:  Solving for ILambda_15_0, Initial residual = 0.04591855, Final residual = 0.004574042, No Iterations 8
Radiation solver iter: 4
DILUPBiCGStab:  Solving for ILambda_0_0, Initial residual = 0.04390124, Final residual = 7.16826e-17, No Iterations 1
DILUPBiCGStab:  Solving for ILambda_1_0, Initial residual = 0.05275045, Final residual = 4.016222e-17, No Iterations 1
DILUPBiCGStab:  Solving for ILambda_2_0, Initial residual = 0.04397246, Final residual = 3.276216e-17, No Iterations 1
DILUPBiCGStab:  Solving for ILambda_3_0, Initial residual = 0.01074637, Final residual = 7.182108e-18, No Iterations 1
DILUPBiCGStab:  Solving for ILambda_4_0, Initial residual = 0.01098534, Final residual = 0.0009227085, No Iterations 2
DILUPBiCGStab:  Solving for ILambda_5_0, Initial residual = 0.04955869, Final residual = 0.004908873, No Iterations 3
DILUPBiCGStab:  Solving for ILambda_6_0, Initial residual = 0.05534439, Final residual = 0.004983347, No Iterations 3
DILUPBiCGStab:  Solving for ILambda_7_0, Initial residual = 0.03671707, Final residual = 0.003172474, No Iterations 5
DILUPBiCGStab:  Solving for ILambda_8_0, Initial residual = 0.01115602, Final residual = 1.270134e-17, No Iterations 1
DILUPBiCGStab:  Solving for ILambda_9_0, Initial residual = 0.01863705, Final residual = 1.957749e-17, No Iterations 1
DILUPBiCGStab:  Solving for ILambda_10_0, Initial residual = 0.02223936, Final residual = 3.102349e-17, No Iterations 1
DILUPBiCGStab:  Solving for ILambda_11_0, Initial residual = 0.01640245, Final residual = 4.1243e-17, No Iterations 1
DILUPBiCGStab:  Solving for ILambda_12_0, Initial residual = 0.0202099, Final residual = 0.001773894, No Iterations 3
DILUPBiCGStab:  Solving for ILambda_13_0, Initial residual = 0.03761675, Final residual = 0.003628454, No Iterations 6
DILUPBiCGStab:  Solving for ILambda_14_0, Initial residual = 0.0458448, Final residual = 0.002788212, No Iterations 9
DILUPBiCGStab:  Solving for ILambda_15_0, Initial residual = 0.0419862, Final residual = 0.003968916, No Iterations 7
Radiation solver iter: 5
DILUPBiCGStab:  Solving for ILambda_0_0, Initial residual = 0.03629547, Final residual = 4.681103e-17, No Iterations 1
DILUPBiCGStab:  Solving for ILambda_1_0, Initial residual = 0.04226411, Final residual = 3.16994e-17, No Iterations 1
DILUPBiCGStab:  Solving for ILambda_2_0, Initial residual = 0.02853729, Final residual = 2.174831e-17, No Iterations 1
DILUPBiCGStab:  Solving for ILambda_3_0, Initial residual = 0.004190966, Final residual = 2.946246e-18, No Iterations 1
DILUPBiCGStab:  Solving for ILambda_4_0, Initial residual = 0.004487997, Final residual = 0.0003278784, No Iterations 2
DILUPBiCGStab:  Solving for ILambda_5_0, Initial residual = 0.0351343, Final residual = 0.002729238, No Iterations 3
DILUPBiCGStab:  Solving for ILambda_6_0, Initial residual = 0.04513202, Final residual = 0.001667752, No Iterations 4
DILUPBiCGStab:  Solving for ILambda_7_0, Initial residual = 0.02943997, Final residual = 0.001038312, No Iterations 6
DILUPBiCGStab:  Solving for ILambda_8_0, Initial residual = 0.009668967, Final residual = 9.36415e-18, No Iterations 1
DILUPBiCGStab:  Solving for ILambda_9_0, Initial residual = 0.01615903, Final residual = 1.643516e-17, No Iterations 1
DILUPBiCGStab:  Solving for ILambda_10_0, Initial residual = 0.01691818, Final residual = 2.259959e-17, No Iterations 1
DILUPBiCGStab:  Solving for ILambda_11_0, Initial residual = 0.01119228, Final residual = 2.824884e-17, No Iterations 1
DILUPBiCGStab:  Solving for ILambda_12_0, Initial residual = 0.01426064, Final residual = 0.0008454002, No Iterations 4
DILUPBiCGStab:  Solving for ILambda_13_0, Initial residual = 0.02900179, Final residual = 0.002634586, No Iterations 6
DILUPBiCGStab:  Solving for ILambda_14_0, Initial residual = 0.03968027, Final residual = 0.003864968, No Iterations 6
DILUPBiCGStab:  Solving for ILambda_15_0, Initial residual = 0.03731374, Final residual = 0.002852478, No Iterations 8
Radiation solver iter: 6
DILUPBiCGStab:  Solving for ILambda_0_0, Initial residual = 0.02995022, Final residual = 3.657226e-17, No Iterations 1
DILUPBiCGStab:  Solving for ILambda_1_0, Initial residual = 0.03376993, Final residual = 2.37923e-17, No Iterations 1
DILUPBiCGStab:  Solving for ILambda_2_0, Initial residual = 0.01801681, Final residual = 1.236673e-17, No Iterations 1
DILUPBiCGStab:  Solving for ILambda_3_0, Initial residual = 0.001601189, Final residual = 1.132818e-18, No Iterations 1
DILUPBiCGStab:  Solving for ILambda_4_0, Initial residual = 0.001680926, Final residual = 0.0001395556, No Iterations 2
DILUPBiCGStab:  Solving for ILambda_5_0, Initial residual = 0.02324115, Final residual = 0.002094114, No Iterations 3
DILUPBiCGStab:  Solving for ILambda_6_0, Initial residual = 0.03587417, Final residual = 0.003436683, No Iterations 3
DILUPBiCGStab:  Solving for ILambda_7_0, Initial residual = 0.02380318, Final residual = 0.0008410919, No Iterations 5
DILUPBiCGStab:  Solving for ILambda_8_0, Initial residual = 0.008353261, Final residual = 8.496217e-18, No Iterations 1
DILUPBiCGStab:  Solving for ILambda_9_0, Initial residual = 0.01379593, Final residual = 1.235688e-17, No Iterations 1
DILUPBiCGStab:  Solving for ILambda_10_0, Initial residual = 0.01255751, Final residual = 1.573402e-17, No Iterations 1
DILUPBiCGStab:  Solving for ILambda_11_0, Initial residual = 0.008515243, Final residual = 2.123432e-17, No Iterations 1
DILUPBiCGStab:  Solving for ILambda_12_0, Initial residual = 0.01022027, Final residual = 0.0003484998, No Iterations 4
DILUPBiCGStab:  Solving for ILambda_13_0, Initial residual = 0.02178131, Final residual = 0.001981008, No Iterations 6
DILUPBiCGStab:  Solving for ILambda_14_0, Initial residual = 0.03393194, Final residual = 0.001439458, No Iterations 8
DILUPBiCGStab:  Solving for ILambda_15_0, Initial residual = 0.03196747, Final residual = 0.002929344, No Iterations 6
Radiation solver iter: 7
DILUPBiCGStab:  Solving for ILambda_0_0, Initial residual = 0.02474968, Final residual = 2.605999e-17, No Iterations 1
DILUPBiCGStab:  Solving for ILambda_1_0, Initial residual = 0.02662309, Final residual = 1.584858e-17, No Iterations 1
DILUPBiCGStab:  Solving for ILambda_2_0, Initial residual = 0.01104662, Final residual = 6.053671e-18, No Iterations 1
DILUPBiCGStab:  Solving for ILambda_3_0, Initial residual = 0.0006001501, Final residual = 5.718735e-19, No Iterations 1
DILUPBiCGStab:  Solving for ILambda_4_0, Initial residual = 0.0006494586, Final residual = 7.49447e-05, No Iterations 2
DILUPBiCGStab:  Solving for ILambda_5_0, Initial residual = 0.01501427, Final residual = 0.001376808, No Iterations 3
DILUPBiCGStab:  Solving for ILambda_6_0, Initial residual = 0.02839838, Final residual = 0.0007280142, No Iterations 4
DILUPBiCGStab:  Solving for ILambda_7_0, Initial residual = 0.0197709, Final residual = 0.001607906, No Iterations 3
DILUPBiCGStab:  Solving for ILambda_8_0, Initial residual = 0.007177835, Final residual = 5.297561e-18, No Iterations 1
DILUPBiCGStab:  Solving for ILambda_9_0, Initial residual = 0.01169222, Final residual = 1.029581e-17, No Iterations 1
DILUPBiCGStab:  Solving for ILambda_10_0, Initial residual = 0.009491378, Final residual = 1.085551e-17, No Iterations 1
DILUPBiCGStab:  Solving for ILambda_11_0, Initial residual = 0.007126059, Final residual = 1.682241e-17, No Iterations 1
DILUPBiCGStab:  Solving for ILambda_12_0, Initial residual = 0.008482134, Final residual = 0.0003106378, No Iterations 4
DILUPBiCGStab:  Solving for ILambda_13_0, Initial residual = 0.0167629, Final residual = 0.0008422794, No Iterations 7
DILUPBiCGStab:  Solving for ILambda_14_0, Initial residual = 0.02792033, Final residual = 0.002739767, No Iterations 5
DILUPBiCGStab:  Solving for ILambda_15_0, Initial residual = 0.02716678, Final residual = 0.002533091, No Iterations 7
Radiation solver iter: 8
DILUPBiCGStab:  Solving for ILambda_0_0, Initial residual = 0.02048628, Final residual = 1.990943e-17, No Iterations 1
DILUPBiCGStab:  Solving for ILambda_1_0, Initial residual = 0.0206184, Final residual = 1.241655e-17, No Iterations 1
DILUPBiCGStab:  Solving for ILambda_2_0, Initial residual = 0.006622485, Final residual = 2.898611e-18, No Iterations 1
DILUPBiCGStab:  Solving for ILambda_5_0, Initial residual = 0.00922515, Final residual = 0.0007372903, No Iterations 2
DILUPBiCGStab:  Solving for ILambda_6_0, Initial residual = 0.02231864, Final residual = 0.001559572, No Iterations 2
DILUPBiCGStab:  Solving for ILambda_7_0, Initial residual = 0.01655603, Final residual = 0.001624257, No Iterations 3
DILUPBiCGStab:  Solving for ILambda_8_0, Initial residual = 0.006109157, Final residual = 4.14069e-18, No Iterations 1
DILUPBiCGStab:  Solving for ILambda_9_0, Initial residual = 0.009809806, Final residual = 9.480857e-18, No Iterations 1
DILUPBiCGStab:  Solving for ILambda_10_0, Initial residual = 0.00746241, Final residual = 8.426532e-18, No Iterations 1
DILUPBiCGStab:  Solving for ILambda_11_0, Initial residual = 0.00585866, Final residual = 1.377152e-17, No Iterations 1
DILUPBiCGStab:  Solving for ILambda_12_0, Initial residual = 0.007040116, Final residual = 0.0002486351, No Iterations 4
DILUPBiCGStab:  Solving for ILambda_13_0, Initial residual = 0.01298197, Final residual = 0.001031491, No Iterations 6
[...]
DILUPBiCGStab:  Solving for ILambda_12_0, Initial residual = 0.01113636, Final residual = 0.0006021111, No Iterations 3
DILUPBiCGStab:  Solving for ILambda_13_0, Initial residual = 0.01168384, Final residual = 0.0004834528, No Iterations 7
DILUPBiCGStab:  Solving for ILambda_14_0, Initial residual = 0.01000545, Final residual = 0.0008318367, No Iterations 8
DILUPBiCGStab:  Solving for ILambda_15_0, Initial residual = 0.006672855, Final residual = 0.0005078536, No Iterations 5
Radiation solver iter: 3
DILUPBiCGStab:  Solving for ILambda_0_0, Initial residual = 0.00394627, Final residual = 7.317814e-19, No Iterations 1
DILUPBiCGStab:  Solving for ILambda_1_0, Initial residual = 0.01076539, Final residual = 4.128478e-18, No Iterations 1
DILUPBiCGStab:  Solving for ILambda_2_0, Initial residual = 0.0164672, Final residual = 8.046836e-18, No Iterations 1
DILUPBiCGStab:  Solving for ILambda_3_0, Initial residual = 0.01612406, Final residual = 1.293711e-17, No Iterations 1
DILUPBiCGStab:  Solving for ILambda_4_0, Initial residual = 0.03946356, Final residual = 0.001962565, No Iterations 2
DILUPBiCGStab:  Solving for ILambda_5_0, Initial residual = 0.06801323, Final residual = 0.000791227, No Iterations 6
DILUPBiCGStab:  Solving for ILambda_6_0, Initial residual = 0.05013372, Final residual = 0.004505712, No Iterations 4
DILUPBiCGStab:  Solving for ILambda_7_0, Initial residual = 0.02149023, Final residual = 0.001678636, No Iterations 6
DILUPBiCGStab:  Solving for ILambda_8_0, Initial residual = 0.003879886, Final residual = 2.990598e-18, No Iterations 1
DILUPBiCGStab:  Solving for ILambda_9_0, Initial residual = 0.008003579, Final residual = 7.674701e-18, No Iterations 1
DILUPBiCGStab:  Solving for ILambda_10_0, Initial residual = 0.01162083, Final residual = 1.505074e-17, No Iterations 1
DILUPBiCGStab:  Solving for ILambda_11_0, Initial residual = 0.01050338, Final residual = 2.259972e-17, No Iterations 1
DILUPBiCGStab:  Solving for ILambda_12_0, Initial residual = 0.01041902, Final residual = 0.001012084, No Iterations 4
DILUPBiCGStab:  Solving for ILambda_13_0, Initial residual = 0.01239362, Final residual = 0.001192626, No Iterations 6
DILUPBiCGStab:  Solving for ILambda_14_0, Initial residual = 0.0111373, Final residual = 0.001083314, No Iterations 5
DILUPBiCGStab:  Solving for ILambda_15_0, Initial residual = 0.006644977, Final residual = 0.0006078571, No Iterations 5
Radiation solver iter: 4
DILUPBiCGStab:  Solving for ILambda_0_0, Initial residual = 0.002153794, Final residual = 5.501193e-19, No Iterations 1
DILUPBiCGStab:  Solving for ILambda_1_0, Initial residual = 0.006440351, Final residual = 2.173492e-18, No Iterations 1
DILUPBiCGStab:  Solving for ILambda_2_0, Initial residual = 0.009285785, Final residual = 4.525003e-18, No Iterations 1
DILUPBiCGStab:  Solving for ILambda_3_0, Initial residual = 0.006297511, Final residual = 4.567231e-18, No Iterations 1
DILUPBiCGStab:  Solving for ILambda_4_0, Initial residual = 0.01737465, Final residual = 0.001436496, No Iterations 2
DILUPBiCGStab:  Solving for ILambda_5_0, Initial residual = 0.05030957, Final residual = 0.004400604, No Iterations 4
DILUPBiCGStab:  Solving for ILambda_6_0, Initial residual = 0.04453375, Final residual = 0.003733583, No Iterations 3
DILUPBiCGStab:  Solving for ILambda_7_0, Initial residual = 0.01880296, Final residual = 0.001621333, No Iterations 5
DILUPBiCGStab:  Solving for ILambda_8_0, Initial residual = 0.003614026, Final residual = 2.822726e-18, No Iterations 1
DILUPBiCGStab:  Solving for ILambda_9_0, Initial residual = 0.007925004, Final residual = 6.904953e-18, No Iterations 1
DILUPBiCGStab:  Solving for ILambda_10_0, Initial residual = 0.01076938, Final residual = 1.269703e-17, No Iterations 1
DILUPBiCGStab:  Solving for ILambda_11_0, Initial residual = 0.008196252, Final residual = 1.74333e-17, No Iterations 1
DILUPBiCGStab:  Solving for ILambda_12_0, Initial residual = 0.007441318, Final residual = 0.0004848858, No Iterations 3
DILUPBiCGStab:  Solving for ILambda_13_0, Initial residual = 0.01033509, Final residual = 0.0009575758, No Iterations 6
DILUPBiCGStab:  Solving for ILambda_14_0, Initial residual = 0.00990716, Final residual = 0.0005376548, No Iterations 7
DILUPBiCGStab:  Solving for ILambda_15_0, Initial residual = 0.006208573, Final residual = 0.0004887075, No Iterations 4
Radiation solver iter: 5
DILUPBiCGStab:  Solving for ILambda_0_0, Initial residual = 0.001257356, Final residual = 3.888456e-19, No Iterations 1
DILUPBiCGStab:  Solving for ILambda_1_0, Initial residual = 0.003941974, Final residual = 1.322979e-18, No Iterations 1
DILUPBiCGStab:  Solving for ILambda_2_0, Initial residual = 0.005100395, Final residual = 2.413061e-18, No Iterations 1
DILUPBiCGStab:  Solving for ILambda_3_0, Initial residual = 0.002279193, Final residual = 1.575881e-18, No Iterations 1
DILUPBiCGStab:  Solving for ILambda_4_0, Initial residual = 0.007335907, Final residual = 0.0004951595, No Iterations 2
DILUPBiCGStab:  Solving for ILambda_5_0, Initial residual = 0.03601812, Final residual = 0.003063717, No Iterations 3
DILUPBiCGStab:  Solving for ILambda_6_0, Initial residual = 0.03842719, Final residual = 0.002486379, No Iterations 3
DILUPBiCGStab:  Solving for ILambda_7_0, Initial residual = 0.01650223, Final residual = 0.001570465, No Iterations 3
DILUPBiCGStab:  Solving for ILambda_8_0, Initial residual = 0.00336583, Final residual = 2.313311e-18, No Iterations 1
DILUPBiCGStab:  Solving for ILambda_9_0, Initial residual = 0.007652549, Final residual = 6.490662e-18, No Iterations 1
DILUPBiCGStab:  Solving for ILambda_10_0, Initial residual = 0.009204098, Final residual = 9.968402e-18, No Iterations 1
DILUPBiCGStab:  Solving for ILambda_11_0, Initial residual = 0.005951101, Final residual = 1.239452e-17, No Iterations 1
DILUPBiCGStab:  Solving for ILambda_12_0, Initial residual = 0.005551804, Final residual = 0.0001906851, No Iterations 4
DILUPBiCGStab:  Solving for ILambda_13_0, Initial residual = 0.007653711, Final residual = 0.0004975031, No Iterations 7
DILUPBiCGStab:  Solving for ILambda_14_0, Initial residual = 0.007851216, Final residual = 0.0006652904, No Iterations 7
DILUPBiCGStab:  Solving for ILambda_15_0, Initial residual = 0.005128447, Final residual = 0.0004939955, No Iterations 3
Radiation solver iter: 6
DILUPBiCGStab:  Solving for ILambda_0_0, Initial residual = 0.0007880302, Final residual = 2.920292e-19, No Iterations 1
DILUPBiCGStab:  Solving for ILambda_1_0, Initial residual = 0.002445277, Final residual = 9.027986e-19, No Iterations 1
DILUPBiCGStab:  Solving for ILambda_2_0, Initial residual = 0.002794033, Final residual = 1.101846e-18, No Iterations 1
DILUPBiCGStab:  Solving for ILambda_3_0, Initial residual = 0.0008484627, Final residual = 5.547271e-19, No Iterations 1
DILUPBiCGStab:  Solving for ILambda_4_0, Initial residual = 0.00271168, Final residual = 0.00017083, No Iterations 2
DILUPBiCGStab:  Solving for ILambda_5_0, Initial residual = 0.0259121, Final residual = 0.001916681, No Iterations 3
DILUPBiCGStab:  Solving for ILambda_6_0, Initial residual = 0.03250546, Final residual = 0.003111721, No Iterations 3
DILUPBiCGStab:  Solving for ILambda_7_0, Initial residual = 0.01461228, Final residual = 0.001249662, No Iterations 3
DILUPBiCGStab:  Solving for ILambda_8_0, Initial residual = 0.003098156, Final residual = 2.167019e-18, No Iterations 1
DILUPBiCGStab:  Solving for ILambda_9_0, Initial residual = 0.007195778, Final residual = 5.707754e-18, No Iterations 1
DILUPBiCGStab:  Solving for ILambda_10_0, Initial residual = 0.007805807, Final residual = 7.774704e-18, No Iterations 1
DILUPBiCGStab:  Solving for ILambda_11_0, Initial residual = 0.004655894, Final residual = 9.198568e-18, No Iterations 1
DILUPBiCGStab:  Solving for ILambda_12_0, Initial residual = 0.004405197, Final residual = 0.0001359181, No Iterations 4
DILUPBiCGStab:  Solving for ILambda_13_0, Initial residual = 0.006035313, Final residual = 0.0005936579, No Iterations 5
DILUPBiCGStab:  Solving for ILambda_14_0, Initial residual = 0.006552985, Final residual = 0.0005884266, No Iterations 6
DILUPBiCGStab:  Solving for ILambda_15_0, Initial residual = 0.004297696, Final residual = 0.000348829, No Iterations 4
Radiation solver iter: 7
DILUPBiCGStab:  Solving for ILambda_1_0, Initial residual = 0.001554636, Final residual = 5.854994e-19, No Iterations 1
DILUPBiCGStab:  Solving for ILambda_2_0, Initial residual = 0.001541803, Final residual = 6.1485e-19, No Iterations 1
DILUPBiCGStab:  Solving for ILambda_4_0, Initial residual = 0.0009701184, Final residual = 6.502713e-05, No Iterations 2
DILUPBiCGStab:  Solving for ILambda_5_0, Initial residual = 0.01780723, Final residual = 0.001669254, No Iterations 2
DILUPBiCGStab:  Solving for ILambda_6_0, Initial residual = 0.02736382, Final residual = 0.002729149, No Iterations 2
DILUPBiCGStab:  Solving for ILambda_7_0, Initial residual = 0.0129793, Final residual = 0.0004221245, No Iterations 5
DILUPBiCGStab:  Solving for ILambda_8_0, Initial residual = 0.002826142, Final residual = 1.654055e-18, No Iterations 1
DILUPBiCGStab:  Solving for ILambda_9_0, Initial residual = 0.0066322, Final residual = 5.934536e-18, No Iterations 1
DILUPBiCGStab:  Solving for ILambda_10_0, Initial residual = 0.006537269, Final residual = 6.014646e-18, No Iterations 1
DILUPBiCGStab:  Solving for ILambda_11_0, Initial residual = 0.003704751, Final residual = 7.410141e-18, No Iterations 1
DILUPBiCGStab:  Solving for ILambda_12_0, Initial residual = 0.003570143, Final residual = 0.0001350475, No Iterations 4
DILUPBiCGStab:  Solving for ILambda_13_0, Initial residual = 0.005298024, Final residual = 0.0005276237, No Iterations 5
DILUPBiCGStab:  Solving for ILambda_14_0, Initial residual = 0.005602788, Final residual = 0.0003005283, No Iterations 7
DILUPBiCGStab:  Solving for ILambda_15_0, Initial residual = 0.003669829, Final residual = 0.000316003, No Iterations 3
Radiation solver iter: 8
DILUPBiCGStab:  Solving for ILambda_1_0, Initial residual = 0.0009951688, Final residual = 3.82725e-19, No Iterations 1
DILUPBiCGStab:  Solving for ILambda_2_0, Initial residual = 0.0008552131, Final residual = 3.63906e-19, No Iterations 1
DILUPBiCGStab:  Solving for ILambda_5_0, Initial residual = 0.01168149, Final residual = 0.0009781309, No Iterations 2
DILUPBiCGStab:  Solving for ILambda_6_0, Initial residual = 0.02275117, Final residual = 0.001504105, No Iterations 3
DILUPBiCGStab:  Solving for ILambda_7_0, Initial residual = 0.01136076, Final residual = 0.0007347051, No Iterations 3
DILUPBiCGStab:  Solving for ILambda_8_0, Initial residual = 0.002564579, Final residual = 1.930041e-18, No Iterations 1
DILUPBiCGStab:  Solving for ILambda_9_0, Initial residual = 0.006028207, Final residual = 5.267073e-18, No Iterations 1
DILUPBiCGStab:  Solving for ILambda_10_0, Initial residual = 0.005531795, Final residual = 5.319707e-18, No Iterations 1
DILUPBiCGStab:  Solving for ILambda_11_0, Initial residual = 0.003111725, Final residual = 6.528606e-18, No Iterations 1
DILUPBiCGStab:  Solving for ILambda_12_0, Initial residual = 0.003162894, Final residual = 0.0001243355, No Iterations 4
DILUPBiCGStab:  Solving for ILambda_13_0, Initial residual = 0.004878966, Final residual = 0.0002958615, No Iterations 7
DILUPBiCGStab:  Solving for ILambda_14_0, Initial residual = 0.004957004, Final residual = 0.0002046226, No Iterations 7
DILUPBiCGStab:  Solving for ILambda_15_0, Initial residual = 0.003174999, Final residual = 0.0002471925, No Iterations 4
Radiation solver iter: 9
DILUPBiCGStab:  Solving for ILambda_5_0, Initial residual = 0.0074138, Final residual = 0.0005025058, No Iterations 2
DILUPBiCGStab:  Solving for ILambda_6_0, Initial residual = 0.01822852, Final residual = 0.0009153474, No Iterations 3
DILUPBiCGStab:  Solving for ILambda_7_0, Initial residual = 0.01004227, Final residual = 0.0003633178, No Iterations 4
DILUPBiCGStab:  Solving for ILambda_8_0, Initial residual = 0.00228816, Final residual = 1.443239e-18, No Iterations 1
DILUPBiCGStab:  Solving for ILambda_9_0, Initial residual = 0.005310187, Final residual = 3.765412e-18, No Iterations 1
DILUPBiCGStab:  Solving for ILambda_10_0, Initial residual = 0.004604752, Final residual = 4.49365e-18, No Iterations 1
DILUPBiCGStab:  Solving for ILambda_11_0, Initial residual = 0.00251325, Final residual = 5.362596e-18, No Iterations 1
DILUPBiCGStab:  Solving for ILambda_12_0, Initial residual = 0.002635178, Final residual = 0.0001125077, No Iterations 4
DILUPBiCGStab:  Solving for ILambda_13_0, Initial residual = 0.004217751, Final residual = 0.0004215822, No Iterations 5
DILUPBiCGStab:  Solving for ILambda_14_0, Initial residual = 0.004428726, Final residual = 0.0003168894, No Iterations 5
DILUPBiCGStab:  Solving for ILambda_15_0, Initial residual = 0.002738495, Final residual = 0.0001359562, No Iterations 5
Radiation solver iter: 10
DILUPBiCGStab:  Solving for ILambda_5_0, Initial residual = 0.004507647, Final residual = 0.0002601641, No Iterations 2
DILUPBiCGStab:  Solving for ILambda_6_0, Initial residual = 0.01459826, Final residual = 0.0008860725, No Iterations 3
DILUPBiCGStab:  Solving for ILambda_7_0, Initial residual = 0.008752572, Final residual = 0.0006891595, No Iterations 2
DILUPBiCGStab:  Solving for ILambda_8_0, Initial residual = 0.002013514, Final residual = 1.233858e-18, No Iterations 1
DILUPBiCGStab:  Solving for ILambda_9_0, Initial residual = 0.004627763, Final residual = 3.129448e-18, No Iterations 1
DILUPBiCGStab:  Solving for ILambda_10_0, Initial residual = 0.003769135, Final residual = 3.435476e-18, No Iterations 1
DILUPBiCGStab:  Solving for ILambda_11_0, Initial residual = 0.001986594, Final residual = 4.132116e-18, No Iterations 1
DILUPBiCGStab:  Solving for ILambda_12_0, Initial residual = 0.002103025, Final residual = 0.0001017261, No Iterations 4
DILUPBiCGStab:  Solving for ILambda_13_0, Initial residual = 0.003707576, Final residual = 0.0002584939, No Iterations 6
DILUPBiCGStab:  Solving for ILambda_14_0, Initial residual = 0.004019463, Final residual = 0.0001398749, No Iterations 7
DILUPBiCGStab:  Solving for ILambda_15_0, Initial residual = 0.002294425, Final residual = 0.0002016405, No Iterations 3
Radiation solver iter: 11
DILUPBiCGStab:  Solving for ILambda_5_0, Initial residual = 0.002625736, Final residual = 0.0001332898, No Iterations 2
DILUPBiCGStab:  Solving for ILambda_6_0, Initial residual = 0.01152581, Final residual = 0.0007747833, No Iterations 2
DILUPBiCGStab:  Solving for ILambda_7_0, Initial residual = 0.007694167, Final residual = 0.0002332081, No Iterations 4
DILUPBiCGStab:  Solving for ILambda_8_0, Initial residual = 0.001764287, Final residual = 9.046961e-19, No Iterations 1
DILUPBiCGStab:  Solving for ILambda_9_0, Initial residual = 0.003985486, Final residual = 2.605855e-18, No Iterations 1
DILUPBiCGStab:  Solving for ILambda_10_0, Initial residual = 0.003039083, Final residual = 3.152638e-18, No Iterations 1
DILUPBiCGStab:  Solving for ILambda_11_0, Initial residual = 0.001536633, Final residual = 3.11068e-18, No Iterations 1
DILUPBiCGStab:  Solving for ILambda_12_0, Initial residual = 0.001620546, Final residual = 8.537363e-05, No Iterations 4
DILUPBiCGStab:  Solving for ILambda_13_0, Initial residual = 0.003096357, Final residual = 0.000203026, No Iterations 6
DILUPBiCGStab:  Solving for ILambda_14_0, Initial residual = 0.003623191, Final residual = 0.0003006976, No Iterations 5
DILUPBiCGStab:  Solving for ILambda_15_0, Initial residual = 0.001924556, Final residual = 0.0001751002, No Iterations 4
Radiation solver iter: 12
DILUPBiCGStab:  Solving for ILambda_5_0, Initial residual = 0.001495667, Final residual = 0.0001429259, No Iterations 2
DILUPBiCGStab:  Solving for ILambda_6_0, Initial residual = 0.009011514, Final residual = 3.536187e-05, No Iterations 5
DILUPBiCGStab:  Solving for ILambda_7_0, Initial residual = 0.006655416, Final residual = 0.0004301879, No Iterations 2
DILUPBiCGStab:  Solving for ILambda_8_0, Initial residual = 0.001534934, Final residual = 8.849086e-19, No Iterations 1
DILUPBiCGStab:  Solving for ILambda_9_0, Initial residual = 0.003412276, Final residual = 2.095292e-18, No Iterations 1
DILUPBiCGStab:  Solving for ILambda_10_0, Initial residual = 0.002422474, Final residual = 2.238289e-18, No Iterations 1
DILUPBiCGStab:  Solving for ILambda_11_0, Initial residual = 0.001169051, Final residual = 2.431858e-18, No Iterations 1
DILUPBiCGStab:  Solving for ILambda_12_0, Initial residual = 0.00121669, Final residual = 7.130791e-05, No Iterations 4
DILUPBiCGStab:  Solving for ILambda_13_0, Initial residual = 0.002534877, Final residual = 0.0001030853, No Iterations 7
DILUPBiCGStab:  Solving for ILambda_14_0, Initial residual = 0.003252538, Final residual = 0.0003159085, No Iterations 5
DILUPBiCGStab:  Solving for ILambda_15_0, Initial residual = 0.001632867, Final residual = 7.504502e-05, No Iterations 5
Radiation solver iter: 13
DILUPBiCGStab:  Solving for ILambda_5_0, Initial residual = 0.0008274789, Final residual = 9.529411e-05, No Iterations 3
DILUPBiCGStab:  Solving for ILambda_6_0, Initial residual = 0.006898024, Final residual = 0.0004196698, No Iterations 2
DILUPBiCGStab:  Solving for ILambda_7_0, Initial residual = 0.005777183, Final residual = 0.0004322826, No Iterations 2
DILUPBiCGStab:  Solving for ILambda_8_0, Initial residual = 0.001326517, Final residual = 7.766905e-19, No Iterations 1
DILUPBiCGStab:  Solving for ILambda_9_0, Initial residual = 0.002890248, Final residual = 1.804668e-18, No Iterations 1
DILUPBiCGStab:  Solving for ILambda_10_0, Initial residual = 0.001895768, Final residual = 1.885937e-18, No Iterations 1
DILUPBiCGStab:  Solving for ILambda_11_0, Initial residual = 0.0008715205, Final residual = 1.823151e-18, No Iterations 1
DILUPBiCGStab:  Solving for ILambda_12_0, Initial residual = 0.0009054574, Final residual = 5.469085e-05, No Iterations 4
DILUPBiCGStab:  Solving for ILambda_13_0, Initial residual = 0.001996704, Final residual = 0.0001788269, No Iterations 4
DILUPBiCGStab:  Solving for ILambda_14_0, Initial residual = 0.002862541, Final residual = 7.940654e-05, No Iterations 7
DILUPBiCGStab:  Solving for ILambda_15_0, Initial residual = 0.00135182, Final residual = 0.0001173167, No Iterations 3
Radiation solver iter: 14
DILUPBiCGStab:  Solving for ILambda_6_0, Initial residual = 0.005263369, Final residual = 0.0002292724, No Iterations 2
DILUPBiCGStab:  Solving for ILambda_7_0, Initial residual = 0.004997827, Final residual = 0.0004967712, No Iterations 3
DILUPBiCGStab:  Solving for ILambda_8_0, Initial residual = 0.001148479, Final residual = 5.739583e-19, No Iterations 1
DILUPBiCGStab:  Solving for ILambda_9_0, Initial residual = 0.002432432, Final residual = 1.500474e-18, No Iterations 1
DILUPBiCGStab:  Solving for ILambda_10_0, Initial residual = 0.001481059, Final residual = 1.384478e-18, No Iterations 1
DILUPBiCGStab:  Solving for ILambda_13_0, Initial residual = 0.001593357, Final residual = 0.0001366075, No Iterations 5
DILUPBiCGStab:  Solving for ILambda_14_0, Initial residual = 0.002367292, Final residual = 0.0002358818, No Iterations 4
DILUPBiCGStab:  Solving for ILambda_15_0, Initial residual = 0.001164153, Final residual = 0.0001009151, No Iterations 4
GAMG:  Solving for p_rgh, Initial residual = 0.0003813276, Final residual = 1.258151e-06, No Iterations 2
limitVelocity limitU Limited 0 (0%) of cells, with max limit 5
time step continuity errors : sum local = 7.042793e-06, global = 9.200533e-19, cumulative = 1.325326e-15
rho min/max : 0.533539 0.9592598
DILUPBiCGStab:  Solving for omega, Initial residual = 9.335868e-05, Final residual = 3.353563e-06, No Iterations 1
DILUPBiCGStab:  Solving for k, Initial residual = 0.0004792192, Final residual = 8.699522e-06, No Iterations 1
ExecutionTime = 46.52 s  ClockTime = 46 s

surfaceFieldValue wallT write:
    areaAverage(plate) of T = 583.2437

surfaceFieldValue wallTriser write:
    areaAverage(riser) of T = 382.7785

End

