/*---------------------------------------------------------------------------*\
| =========                 |                                                 |
| \\      /  F ield         | OpenFOAM: The Open Source CFD Toolbox           |
|  \\    /   O peration     | Version:  2312                                  |
|   \\  /    A nd           | Website:  www.openfoam.com                      |
|    \\/     M anipulation  |                                                 |
\*---------------------------------------------------------------------------*/
Build  : _c39a0f64-20231220 OPENFOAM=2312 version=2312
Arch   : "LSB;label=32;scalar=64"
Exec   : buoyantSimpleFoam
Date   : Jul 02 2026
Time   : 08:43:56
Host   : f0c5a15448fb
PID    : 231
I/O    : uncollated
Case   : /case
nProcs : 1
trapFpe: Floating point exception trapping enabled (FOAM_SIGFPE).
fileModificationChecking : Monitoring run-time modified files using timeStampMaster (fileModificationSkew 5, maxFileModificationPolls 20)
allowSystemOperations : Allowing user-supplied system call operations

// * * * * * * * * * * * * * * * * * * * * * * * * * * * * * * * * * * * * * //
Create time

Create mesh for time = 3500


SIMPLE: convergence criteria
    field p_rgh	 tolerance 1e-07
    field U	 tolerance 1e-07
    field h	 tolerance 1e-07
    field "(k|omega)"	 tolerance 0.001

Reading thermophysical properties

Selecting thermodynamics package 
{
    type            heRhoThermo;
    mixture         pureMixture;
    transport       const;
    thermo          hConst;
    equationOfState perfectGas;
    specie          specie;
    energy          sensibleEnthalpy;
}

Reading field U

Reading/calculating face flux field phi

Creating turbulence model

Selecting turbulence model type RAS
Selecting RAS turbulence model kOmegaSST
Selecting patchDistMethod meshWave
RAS
{
    RASModel        kOmegaSST;
    turbulence      on;
    printCoeffs     on;
    alphaK1         0.85;
    alphaK2         1;
    alphaOmega1     0.5;
    alphaOmega2     0.856;
    gamma1          0.5555556;
    gamma2          0.44;
    beta1           0.075;
    beta2           0.0828;
    betaStar        0.09;
    a1              0.31;
    b1              1;
    c1              10;
    F3              false;
    decayControl    false;
    kInf            0;
    omegaInf        0;
}


Reading g

Reading hRef
Calculating field g.h

Reading field p_rgh

No MRF models present

Selecting radiationModel fvDOM
Selecting absorptionEmissionModel constantAbsorptionEmission
Selecting scatterModel none
Selecting sootModel none
fvDOM : Allocated 16 rays with average orientation:
	I0 : dAve : 	(0.1195698 0.6011177 2.944771e-33) : omega : 	0.7853982 : d : 	(0.1950903 0.9807853 6.123234e-17)
	I1 : dAve : 	(0.3405058 0.509603 2.944771e-33) : omega : 	0.7853982 : d : 	(0.5555702 0.8314696 6.123234e-17)
	I2 : dAve : 	(0.509603 0.3405058 2.944771e-33) : omega : 	0.7853982 : d : 	(0.8314696 0.5555702 6.123234e-17)
	I3 : dAve : 	(0.6011177 0.1195698 2.944771e-33) : omega : 	0.7853982 : d : 	(0.9807853 0.1950903 6.123234e-17)
	I4 : dAve : 	(0.6011177 -0.1195698 2.944771e-33) : omega : 	0.7853982 : d : 	(0.9807853 -0.1950903 6.123234e-17)
	I5 : dAve : 	(0.509603 -0.3405058 2.944771e-33) : omega : 	0.7853982 : d : 	(0.8314696 -0.5555702 6.123234e-17)
	I6 : dAve : 	(0.3405058 -0.509603 2.944771e-33) : omega : 	0.7853982 : d : 	(0.5555702 -0.8314696 6.123234e-17)
	I7 : dAve : 	(0.1195698 -0.6011177 2.944771e-33) : omega : 	0.7853982 : d : 	(0.1950903 -0.9807853 6.123234e-17)
	I8 : dAve : 	(-0.1195698 -0.6011177 2.944771e-33) : omega : 	0.7853982 : d : 	(-0.1950903 -0.9807853 6.123234e-17)
	I9 : dAve : 	(-0.3405058 -0.509603 2.944771e-33) : omega : 	0.7853982 : d : 	(-0.5555702 -0.8314696 6.123234e-17)
	I10 : dAve : 	(-0.509603 -0.3405058 2.944771e-33) : omega : 	0.7853982 : d : 	(-0.8314696 -0.5555702 6.123234e-17)
	I11 : dAve : 	(-0.6011177 -0.1195698 2.944771e-33) : omega : 	0.7853982 : d : 	(-0.9807853 -0.1950903 6.123234e-17)
	I12 : dAve : 	(-0.6011177 0.1195698 2.944771e-33) : omega : 	0.7853982 : d : 	(-0.9807853 0.1950903 6.123234e-17)
	I13 : dAve : 	(-0.509603 0.3405058 2.944771e-33) : omega : 	0.7853982 : d : 	(-0.8314696 0.5555702 6.123234e-17)
	I14 : dAve : 	(-0.3405058 0.509603 2.944771e-33) : omega : 	0.7853982 : d : 	(-0.5555702 0.8314696 6.123234e-17)
	I15 : dAve : 	(-0.1195698 0.6011177 2.944771e-33) : omega : 	0.7853982 : d : 	(-0.1950903 0.9807853 6.123234e-17)
Total omega : 12.56637

Creating finite volume options from "system/fvOptions"

Selecting finite volume options type limitTemperature
    Source: limitT
    - selecting all cells
    - selected 12000 cell(s) with volume 0.473422
Selecting finite volume options type limitVelocity
    Source: limitU
    - selecting all cells
    - selected 12000 cell(s) with volume 0.473422

Starting time loop

surfaceFieldValue wallT:
    operation     = areaAverage


surfaceFieldValue wallTriser:
    operation     = areaAverage


Time = 3501

DILUPBiCGStab:  Solving for h, Initial residual = 0.0003970599, Final residual = 1.553241e-07, No Iterations 1
limitTemperature limitT Lower limited 0 (0%) of cells, with min limit 280
limitTemperature limitT Upper limited 0 (0%) of cells, with max limit 1200
limitTemperature limitT Unlimited Tmin 415.3665
limitTemperature limitT Unlimited Tmax 500.8666
Radiation solver iter: 0
Selecting boundary radiation Model: lookup
Selecting boundary radiation Model: lookup
Selecting boundary radiation Model: lookup
DILUPBiCGStab:  Solving for ILambda_0_0, Initial residual = 0.4962327, Final residual = 4.976181e-15, No Iterations 1
DILUPBiCGStab:  Solving for ILambda_1_0, Initial residual = 0.7129013, Final residual = 4.995436e-15, No Iterations 1
DILUPBiCGStab:  Solving for ILambda_2_0, Initial residual = 0.8221791, Final residual = 4.523997e-15, No Iterations 1
DILUPBiCGStab:  Solving for ILambda_3_0, Initial residual = 0.8980793, Final residual = 4.541344e-15, No Iterations 1
DILUPBiCGStab:  Solving for ILambda_4_0, Initial residual = 0.9082973, Final residual = 0.04919402, No Iterations 5
DILUPBiCGStab:  Solving for ILambda_5_0, Initial residual = 0.8535224, Final residual = 0.0826639, No Iterations 11
DILUPBiCGStab:  Solving for ILambda_6_0, Initial residual = 0.767094, Final residual = 0.05907477, No Iterations 20
DILUPBiCGStab:  Solving for ILambda_7_0, Initial residual = 0.5768724, Final residual = 0.007440566, No Iterations 35
DILUPBiCGStab:  Solving for ILambda_8_0, Initial residual = 0.4869779, Final residual = 4.125651e-15, No Iterations 1
DILUPBiCGStab:  Solving for ILambda_9_0, Initial residual = 0.678619, Final residual = 4.362156e-15, No Iterations 1
DILUPBiCGStab:  Solving for ILambda_10_0, Initial residual = 0.8030663, Final residual = 4.594474e-15, No Iterations 1
DILUPBiCGStab:  Solving for ILambda_11_0, Initial residual = 0.8848744, Final residual = 4.465961e-15, No Iterations 1
DILUPBiCGStab:  Solving for ILambda_12_0, Initial residual = 0.9097111, Final residual = 0.007807068, No Iterations 5
DILUPBiCGStab:  Solving for ILambda_13_0, Initial residual = 0.8788443, Final residual = 0.02059778, No Iterations 11
DILUPBiCGStab:  Solving for ILambda_14_0, Initial residual = 0.8297958, Final residual = 0.07890517, No Iterations 16
DILUPBiCGStab:  Solving for ILambda_15_0, Initial residual = 0.7320323, Final residual = 0.06050546, No Iterations 30
Radiation solver iter: 1
DILUPBiCGStab:  Solving for ILambda_0_0, Initial residual = 0.06097236, Final residual = 2.756867e-16, No Iterations 1
DILUPBiCGStab:  Solving for ILambda_1_0, Initial residual = 0.0806115, Final residual = 3.019593e-16, No Iterations 1
DILUPBiCGStab:  Solving for ILambda_2_0, Initial residual = 0.1062279, Final residual = 3.701719e-16, No Iterations 1
DILUPBiCGStab:  Solving for ILambda_3_0, Initial residual = 0.1261748, Final residual = 5.501999e-16, No Iterations 1
DILUPBiCGStab:  Solving for ILambda_4_0, Initial residual = 0.2621407, Final residual = 0.02142496, No Iterations 3
DILUPBiCGStab:  Solving for ILambda_5_0, Initial residual = 0.2539634, Final residual = 0.007243753, No Iterations 9
DILUPBiCGStab:  Solving for ILambda_6_0, Initial residual = 0.1486287, Final residual = 0.01470859, No Iterations 13
DILUPBiCGStab:  Solving for ILambda_7_0, Initial residual = 0.05296141, Final residual = 0.00380834, No Iterations 22
DILUPBiCGStab:  Solving for ILambda_8_0, Initial residual = 0.07573866, Final residual = 2.968618e-16, No Iterations 1
DILUPBiCGStab:  Solving for ILambda_9_0, Initial residual = 0.0692981, Final residual = 2.168306e-16, No Iterations 1
DILUPBiCGStab:  Solving for ILambda_10_0, Initial residual = 0.0662345, Final residual = 1.943539e-16, No Iterations 1
DILUPBiCGStab:  Solving for ILambda_11_0, Initial residual = 0.05613995, Final residual = 2.008641e-16, No Iterations 1
DILUPBiCGStab:  Solving for ILambda_12_0, Initial residual = 0.07601204, Final residual = 0.004926627, No Iterations 4
DILUPBiCGStab:  Solving for ILambda_13_0, Initial residual = 0.104286, Final residual = 0.008675124, No Iterations 7
DILUPBiCGStab:  Solving for ILambda_14_0, Initial residual = 0.2067518, Final residual = 0.01513542, No Iterations 7
DILUPBiCGStab:  Solving for ILambda_15_0, Initial residual = 0.1274937, Final residual = 0.0115851, No Iterations 14
Radiation solver iter: 2
DILUPBiCGStab:  Solving for ILambda_0_0, Initial residual = 0.02925481, Final residual = 6.626735e-17, No Iterations 1
DILUPBiCGStab:  Solving for ILambda_1_0, Initial residual = 0.03454848, Final residual = 4.219839e-17, No Iterations 1
DILUPBiCGStab:  Solving for ILambda_2_0, Initial residual = 0.03844876, Final residual = 3.625701e-17, No Iterations 1
DILUPBiCGStab:  Solving for ILambda_3_0, Initial residual = 0.02821086, Final residual = 2.832573e-17, No Iterations 1
DILUPBiCGStab:  Solving for ILambda_4_0, Initial residual = 0.04089156, Final residual = 0.002010444, No Iterations 3
DILUPBiCGStab:  Solving for ILambda_5_0, Initial residual = 0.05362846, Final residual = 0.003064702, No Iterations 6
DILUPBiCGStab:  Solving for ILambda_6_0, Initial residual = 0.0519471, Final residual = 0.004058007, No Iterations 6
DILUPBiCGStab:  Solving for ILambda_7_0, Initial residual = 0.03172095, Final residual = 0.002921159, No Iterations 9
DILUPBiCGStab:  Solving for ILambda_8_0, Initial residual = 0.03604853, Final residual = 6.874202e-17, No Iterations 1
DILUPBiCGStab:  Solving for ILambda_9_0, Initial residual = 0.03931602, Final residual = 7.133567e-17, No Iterations 1
DILUPBiCGStab:  Solving for ILambda_10_0, Initial residual = 0.03898953, Final residual = 8.352955e-17, No Iterations 1
DILUPBiCGStab:  Solving for ILambda_11_0, Initial residual = 0.03252605, Final residual = 9.652188e-17, No Iterations 1
DILUPBiCGStab:  Solving for ILambda_12_0, Initial residual = 0.0351647, Final residual = 0.003015202, No Iterations 4
DILUPBiCGStab:  Solving for ILambda_13_0, Initial residual = 0.04482066, Final residual = 0.004450221, No Iterations 9
DILUPBiCGStab:  Solving for ILambda_14_0, Initial residual = 0.05457162, Final residual = 0.002060007, No Iterations 13
DILUPBiCGStab:  Solving for ILambda_15_0, Initial residual = 0.05227964, Final residual = 0.00501779, No Iterations 12
Radiation solver iter: 3
DILUPBiCGStab:  Solving for ILambda_0_0, Initial residual = 0.02287233, Final residual = 4.01089e-17, No Iterations 1
DILUPBiCGStab:  Solving for ILambda_1_0, Initial residual = 0.02453348, Final residual = 2.767629e-17, No Iterations 1
DILUPBiCGStab:  Solving for ILambda_2_0, Initial residual = 0.02303382, Final residual = 1.906285e-17, No Iterations 1
DILUPBiCGStab:  Solving for ILambda_3_0, Initial residual = 0.01171867, Final residual = 1.028271e-17, No Iterations 1
DILUPBiCGStab:  Solving for ILambda_4_0, Initial residual = 0.01212792, Final residual = 0.001189485, No Iterations 2
DILUPBiCGStab:  Solving for ILambda_5_0, Initial residual = 0.02830883, Final residual = 0.002310803, No Iterations 4
DILUPBiCGStab:  Solving for ILambda_6_0, Initial residual = 0.03304961, Final residual = 0.002720271, No Iterations 5
DILUPBiCGStab:  Solving for ILambda_7_0, Initial residual = 0.02585278, Final residual = 0.002160937, No Iterations 7
DILUPBiCGStab:  Solving for ILambda_8_0, Initial residual = 0.02913142, Final residual = 4.242756e-17, No Iterations 1
DILUPBiCGStab:  Solving for ILambda_9_0, Initial residual = 0.03105753, Final residual = 4.649358e-17, No Iterations 1
DILUPBiCGStab:  Solving for ILambda_10_0, Initial residual = 0.0278572, Final residual = 5.359986e-17, No Iterations 1
DILUPBiCGStab:  Solving for ILambda_11_0, Initial residual = 0.01970365, Final residual = 5.293511e-17, No Iterations 1
DILUPBiCGStab:  Solving for ILambda_12_0, Initial residual = 0.01932944, Final residual = 0.001508715, No Iterations 4
DILUPBiCGStab:  Solving for ILambda_13_0, Initial residual = 0.02876555, Final residual = 0.001315923, No Iterations 8
DILUPBiCGStab:  Solving for ILambda_14_0, Initial residual = 0.03272402, Final residual = 0.003252822, No Iterations 8
DILUPBiCGStab:  Solving for ILambda_15_0, Initial residual = 0.03435776, Final residual = 0.002258577, No Iterations 9
Radiation solver iter: 4
DILUPBiCGStab:  Solving for ILambda_0_0, Initial residual = 0.0189496, Final residual = 2.811363e-17, No Iterations 1
DILUPBiCGStab:  Solving for ILambda_1_0, Initial residual = 0.01841724, Final residual = 1.672142e-17, No Iterations 1
DILUPBiCGStab:  Solving for ILambda_2_0, Initial residual = 0.01466681, Final residual = 1.42011e-17, No Iterations 1
DILUPBiCGStab:  Solving for ILambda_3_0, Initial residual = 0.004699004, Final residual = 3.309222e-18, No Iterations 1
DILUPBiCGStab:  Solving for ILambda_4_0, Initial residual = 0.0048167, Final residual = 0.0004028199, No Iterations 2
DILUPBiCGStab:  Solving for ILambda_5_0, Initial residual = 0.01784381, Final residual = 0.001666537, No Iterations 3
DILUPBiCGStab:  Solving for ILambda_6_0, Initial residual = 0.02430085, Final residual = 0.001992125, No Iterations 4
DILUPBiCGStab:  Solving for ILambda_7_0, Initial residual = 0.02184418, Final residual = 0.001250837, No Iterations 6
DILUPBiCGStab:  Solving for ILambda_8_0, Initial residual = 0.02455361, Final residual = 3.044602e-17, No Iterations 1
DILUPBiCGStab:  Solving for ILambda_9_0, Initial residual = 0.02539396, Final residual = 3.446618e-17, No Iterations 1
DILUPBiCGStab:  Solving for ILambda_10_0, Initial residual = 0.02033728, Final residual = 3.5847e-17, No Iterations 1
DILUPBiCGStab:  Solving for ILambda_11_0, Initial residual = 0.01234597, Final residual = 3.447182e-17, No Iterations 1
DILUPBiCGStab:  Solving for ILambda_12_0, Initial residual = 0.01265085, Final residual = 0.000484492, No Iterations 4
DILUPBiCGStab:  Solving for ILambda_13_0, Initial residual = 0.02033668, Final residual = 0.001627271, No Iterations 8
DILUPBiCGStab:  Solving for ILambda_14_0, Initial residual = 0.02662321, Final residual = 0.0008237389, No Iterations 11
DILUPBiCGStab:  Solving for ILambda_15_0, Initial residual = 0.02718234, Final residual = 0.002376174, No Iterations 6
Radiation solver iter: 5
DILUPBiCGStab:  Solving for ILambda_0_0, Initial residual = 0.01621402, Final residual = 2.263155e-17, No Iterations 1
DILUPBiCGStab:  Solving for ILambda_1_0, Initial residual = 0.01436248, Final residual = 1.19954e-17, No Iterations 1
DILUPBiCGStab:  Solving for ILambda_2_0, Initial residual = 0.009717707, Final residual = 6.198359e-18, No Iterations 1
DILUPBiCGStab:  Solving for ILambda_3_0, Initial residual = 0.001831232, Final residual = 1.40918e-18, No Iterations 1
DILUPBiCGStab:  Solving for ILambda_4_0, Initial residual = 0.001678966, Final residual = 0.0001550944, No Iterations 2
DILUPBiCGStab:  Solving for ILambda_5_0, Initial residual = 0.01179593, Final residual = 0.0008239087, No Iterations 4
DILUPBiCGStab:  Solving for ILambda_6_0, Initial residual = 0.01937433, Final residual = 0.001923698, No Iterations 3
DILUPBiCGStab:  Solving for ILambda_7_0, Initial residual = 0.01883159, Final residual = 0.0005339299, No Iterations 7
DILUPBiCGStab:  Solving for ILambda_8_0, Initial residual = 0.02135471, Final residual = 2.482241e-17, No Iterations 1
DILUPBiCGStab:  Solving for ILambda_9_0, Initial residual = 0.02091547, Final residual = 2.645671e-17, No Iterations 1
DILUPBiCGStab:  Solving for ILambda_10_0, Initial residual = 0.01477031, Final residual = 2.437682e-17, No Iterations 1
DILUPBiCGStab:  Solving for ILambda_11_0, Initial residual = 0.008288439, Final residual = 2.338535e-17, No Iterations 1
DILUPBiCGStab:  Solving for ILambda_12_0, Initial residual = 0.00823111, Final residual = 0.0006474101, No Iterations 3
DILUPBiCGStab:  Solving for ILambda_13_0, Initial residual = 0.01453482, Final residual = 0.0004146483, No Iterations 9
DILUPBiCGStab:  Solving for ILambda_14_0, Initial residual = 0.02078762, Final residual = 0.001907354, No Iterations 10
DILUPBiCGStab:  Solving for ILambda_15_0, Initial residual = 0.02329188, Final residual = 0.002232452, No Iterations 7
Radiation solver iter: 6
DILUPBiCGStab:  Solving for ILambda_0_0, Initial residual = 0.01401248, Final residual = 1.604107e-17, No Iterations 1
DILUPBiCGStab:  Solving for ILambda_1_0, Initial residual = 0.01132721, Final residual = 7.38816e-18, No Iterations 1
DILUPBiCGStab:  Solving for ILambda_2_0, Initial residual = 0.006497718, Final residual = 3.682545e-18, No Iterations 1
DILUPBiCGStab:  Solving for ILambda_3_0, Initial residual = 0.0007176806, Final residual = 6.167292e-19, No Iterations 1
DILUPBiCGStab:  Solving for ILambda_4_0, Initial residual = 0.0006651992, Final residual = 7.841915e-05, No Iterations 2
DILUPBiCGStab:  Solving for ILambda_5_0, Initial residual = 0.00764801, Final residual = 0.0004877882, No Iterations 3
DILUPBiCGStab:  Solving for ILambda_6_0, Initial residual = 0.0155719, Final residual = 0.001500059, No Iterations 3
DILUPBiCGStab:  Solving for ILambda_7_0, Initial residual = 0.01621331, Final residual = 0.001371294, No Iterations 3
DILUPBiCGStab:  Solving for ILambda_8_0, Initial residual = 0.01861069, Final residual = 2.012213e-17, No Iterations 1
DILUPBiCGStab:  Solving for ILambda_9_0, Initial residual = 0.01699398, Final residual = 1.917299e-17, No Iterations 1
DILUPBiCGStab:  Solving for ILambda_10_0, Initial residual = 0.01097438, Final residual = 1.677177e-17, No Iterations 1
DILUPBiCGStab:  Solving for ILambda_11_0, Initial residual = 0.006085227, Final residual = 1.688721e-17, No Iterations 1
DILUPBiCGStab:  Solving for ILambda_12_0, Initial residual = 0.006173342, Final residual = 0.0004642271, No Iterations 4
DILUPBiCGStab:  Solving for ILambda_13_0, Initial residual = 0.01040541, Final residual = 0.0005965548, No Iterations 8
DILUPBiCGStab:  Solving for ILambda_14_0, Initial residual = 0.01651337, Final residual = 0.001471744, No Iterations 7
DILUPBiCGStab:  Solving for ILambda_15_0, Initial residual = 0.02023516, Final residual = 0.001639769, No Iterations 6
Radiation solver iter: 7
DILUPBiCGStab:  Solving for ILambda_0_0, Initial residual = 0.01212329, Final residual = 1.47856e-17, No Iterations 1
DILUPBiCGStab:  Solving for ILambda_1_0, Initial residual = 0.008966815, Final residual = 6.283823e-18, No Iterations 1
DILUPBiCGStab:  Solving for ILambda_2_0, Initial residual = 0.004278579, Final residual = 2.872798e-18, No Iterations 1
DILUPBiCGStab:  Solving for ILambda_5_0, Initial residual = 0.004880147, Final residual = 0.000382763, No Iterations 3
DILUPBiCGStab:  Solving for ILambda_6_0, Initial residual = 0.0124831, Final residual = 0.0004760942, No Iterations 4
DILUPBiCGStab:  Solving for ILambda_7_0, Initial residual = 0.01427988, Final residual = 0.0008289854, No Iterations 4
DILUPBiCGStab:  Solving for ILambda_8_0, Initial residual = 0.01612328, Final residual = 1.429523e-17, No Iterations 1
DILUPBiCGStab:  Solving for ILambda_9_0, Initial residual = 0.01377716, Final residual = 1.457036e-17, No Iterations 1
DILUPBiCGStab:  Solving for ILambda_10_0, Initial residual = 0.008680929, Final residual = 1.195449e-17, No Iterations 1
DILUPBiCGStab:  Solving for ILambda_11_0, Initial residual = 0.004893993, Final residual = 1.30918e-17, No Iterations 1
DILUPBiCGStab:  Solving for ILambda_12_0, Initial residual = 0.004796329, Final residual = 0.0003154862, No Iterations 4
DILUPBiCGStab:  Solving for ILambda_13_0, Initial residual = 0.008359079, Final residual = 0.0002682282, No Iterations 8
DILUPBiCGStab:  Solving for ILambda_14_0, Initial residual = 0.01299891, Final residual = 0.000749806, No Iterations 8
DILUPBiCGStab:  Solving for ILambda_15_0, Initial residual = 0.01693945, Final residual = 0.001618318, No Iterations 5
Radiation solver iter: 8
DILUPBiCGStab:  Solving for ILambda_0_0, Initial residual = 0.01046547, Final residual = 1.131732e-17, No Iterations 1
DILUPBiCGStab:  Solving for ILambda_1_0, Initial residual = 0.007095191, Final residual = 4.610802e-18, No Iterations 1
DILUPBiCGStab:  Solving for ILambda_2_0, Initial residual = 0.002737778, Final residual = 1.412733e-18, No Iterations 1
DILUPBiCGStab:  Solving for ILambda_5_0, Initial residual = 0.003056039, Final residual = 0.0002117998, No Iterations 3
DILUPBiCGStab:  Solving for ILambda_6_0, Initial residual = 0.009754082, Final residual = 0.0007110859, No Iterations 2
DILUPBiCGStab:  Solving for ILambda_7_0, Initial residual = 0.01245018, Final residual = 0.0009503637, No Iterations 3
DILUPBiCGStab:  Solving for ILambda_8_0, Initial residual = 0.0138825, Final residual = 1.422573e-17, No Iterations 1
DILUPBiCGStab:  Solving for ILambda_9_0, Initial residual = 0.01124004, Final residual = 1.143165e-17, No Iterations 1
DILUPBiCGStab:  Solving for ILambda_10_0, Initial residual = 0.007250589, Final residual = 1.007338e-17, No Iterations 1
DILUPBiCGStab:  Solving for ILambda_11_0, Initial residual = 0.004075975, Final residual = 1.070573e-17, No Iterations 1
DILUPBiCGStab:  Solving for ILambda_12_0, Initial residual = 0.003952101, Final residual = 3.41405e-05, No Iterations 5
DILUPBiCGStab:  Solving for ILambda_13_0, Initial residual = 0.00696975, Final residual = 0.0006610595, No Iterations 7
DILUPBiCGStab:  Solving for ILambda_14_0, Initial residual = 0.01033227, Final residual = 0.0007419217, No Iterations 8
DILUPBiCGStab:  Solving for ILambda_15_0, Initial residual = 0.01443188, Final residual = 0.0009478581, No Iterations 5
Radiation solver iter: 9
DILUPBiCGStab:  Solving for ILambda_0_0, Initial residual = 0.009030693, Final residual = 9.716119e-18, No Iterations 1
DILUPBiCGStab:  Solving for ILambda_1_0, Initial residual = 0.005571778, Final residual = 3.615351e-18, No Iterations 1
DILUPBiCGStab:  Solving for ILambda_2_0, Initial residual = 0.001706325, Final residual = 9.023638e-19, No Iterations 1
DILUPBiCGStab:  Solving for ILambda_5_0, Initial residual = 0.001858063, Final residual = 0.0001135946, No Iterations 3
DILUPBiCGStab:  Solving for ILambda_6_0, Initial residual = 0.007629619, Final residual = 0.0005139246, No Iterations 2
DILUPBiCGStab:  Solving for ILambda_7_0, Initial residual = 0.01088996, Final residual = 0.001074047, No Iterations 3
DILUPBiCGStab:  Solving for ILambda_8_0, Initial residual = 0.01192597, Final residual = 9.190338e-18, No Iterations 1
DILUPBiCGStab:  Solving for ILambda_9_0, Initial residual = 0.009284893, Final residual = 8.433825e-18, No Iterations 1
DILUPBiCGStab:  Solving for ILambda_10_0, Initial residual = 0.006109439, Final residual = 8.23834e-18, No Iterations 1
DILUPBiCGStab:  Solving for ILambda_11_0, Initial residual = 0.003332854, Final residual = 9.006839e-18, No Iterations 1
DILUPBiCGStab:  Solving for ILambda_12_0, Initial residual = 0.003296496, Final residual = 0.000173654, No Iterations 4
DILUPBiCGStab:  Solving for ILambda_13_0, Initial residual = 0.005978019, Final residual = 0.0003826909, No Iterations 7
DILUPBiCGStab:  Solving for ILambda_14_0, Initial residual = 0.008434652, Final residual = 0.0006489369, No Iterations 7
DILUPBiCGStab:  Solving for ILambda_15_0, Initial residual = 0.01213946, Final residual = 0.001008356, No Iterations 4
Radiation solver iter: 10
DILUPBiCGStab:  Solving for ILambda_0_0, Initial residual = 0.007751215, Final residual = 7.576318e-18, No Iterations 1
DILUPBiCGStab:  Solving for ILambda_1_0, Initial residual = 0.004343486, Final residual = 2.255197e-18, No Iterations 1
DILUPBiCGStab:  Solving for ILambda_2_0, Initial residual = 0.001027692, Final residual = 4.158557e-19, No Iterations 1
DILUPBiCGStab:  Solving for ILambda_5_0, Initial residual = 0.001102296, Final residual = 5.617886e-05, No Iterations 3
DILUPBiCGStab:  Solving for ILambda_6_0, Initial residual = 0.005881515, Final residual = 0.0003668929, No Iterations 2
DILUPBiCGStab:  Solving for ILambda_7_0, Initial residual = 0.009490681, Final residual = 0.0004926743, No Iterations 4
DILUPBiCGStab:  Solving for ILambda_8_0, Initial residual = 0.0102278, Final residual = 7.256945e-18, No Iterations 1
DILUPBiCGStab:  Solving for ILambda_9_0, Initial residual = 0.007763704, Final residual = 7.121599e-18, No Iterations 1
DILUPBiCGStab:  Solving for ILambda_10_0, Initial residual = 0.005098541, Final residual = 6.592682e-18, No Iterations 1
DILUPBiCGStab:  Solving for ILambda_11_0, Initial residual = 0.002671333, Final residual = 6.850449e-18, No Iterations 1
DILUPBiCGStab:  Solving for ILambda_12_0, Initial residual = 0.002719597, Final residual = 0.0001117709, No Iterations 4
DILUPBiCGStab:  Solving for ILambda_13_0, Initial residual = 0.004921251, Final residual = 0.0002574894, No Iterations 8
DILUPBiCGStab:  Solving for ILambda_14_0, Initial residual = 0.006993467, Final residual = 0.0003434948, No Iterations 9
DILUPBiCGStab:  Solving for ILambda_15_0, Initial residual = 0.01040364, Final residual = 0.0004236191, No Iterations 5
Radiation solver iter: 11
DILUPBiCGStab:  Solving for ILambda_0_0, Initial residual = 0.006638892, Final residual = 6.744414e-18, No Iterations 1
DILUPBiCGStab:  Solving for ILambda_1_0, Initial residual = 0.003352773, Final residual = 1.70849e-18, No Iterations 1
DILUPBiCGStab:  Solving for ILambda_2_0, Initial residual = 0.0005981615, Final residual = 3.034439e-19, No Iterations 1
DILUPBiCGStab:  Solving for ILambda_5_0, Initial residual = 0.0006501233, Final residual = 9.504074e-05, No Iterations 2
DILUPBiCGStab:  Solving for ILambda_6_0, Initial residual = 0.004474401, Final residual = 0.0002523228, No Iterations 2
DILUPBiCGStab:  Solving for ILambda_7_0, Initial residual = 0.008041074, Final residual = 0.0007419974, No Iterations 2
DILUPBiCGStab:  Solving for ILambda_8_0, Initial residual = 0.008778207, Final residual = 7.315278e-18, No Iterations 1
DILUPBiCGStab:  Solving for ILambda_9_0, Initial residual = 0.006555152, Final residual = 5.816672e-18, No Iterations 1
DILUPBiCGStab:  Solving for ILambda_10_0, Initial residual = 0.004169, Final residual = 5.53755e-18, No Iterations 1
DILUPBiCGStab:  Solving for ILambda_11_0, Initial residual = 0.002084024, Final residual = 5.271633e-18, No Iterations 1
DILUPBiCGStab:  Solving for ILambda_12_0, Initial residual = 0.002112301, Final residual = 8.760378e-05, No Iterations 4
DILUPBiCGStab:  Solving for ILambda_13_0, Initial residual = 0.004020699, Final residual = 0.0003377999, No Iterations 6
DILUPBiCGStab:  Solving for ILambda_14_0, Initial residual = 0.005919785, Final residual = 0.0005450731, No Iterations 6
DILUPBiCGStab:  Solving for ILambda_15_0, Initial residual = 0.008826919, Final residual = 0.0005699589, No Iterations 4
Radiation solver iter: 12
DILUPBiCGStab:  Solving for ILambda_0_0, Initial residual = 0.005656941, Final residual = 4.469498e-18, No Iterations 1
DILUPBiCGStab:  Solving for ILambda_1_0, Initial residual = 0.002555889, Final residual = 1.231132e-18, No Iterations 1
DILUPBiCGStab:  Solving for ILambda_6_0, Initial residual = 0.003348428, Final residual = 0.0003060797, No Iterations 2
DILUPBiCGStab:  Solving for ILambda_7_0, Initial residual = 0.006958769, Final residual = 0.0006886379, No Iterations 2
DILUPBiCGStab:  Solving for ILambda_8_0, Initial residual = 0.007533092, Final residual = 6.225722e-18, No Iterations 1
DILUPBiCGStab:  Solving for ILambda_9_0, Initial residual = 0.005543334, Final residual = 4.821062e-18, No Iterations 1
DILUPBiCGStab:  Solving for ILambda_10_0, Initial residual = 0.003319816, Final residual = 4.327373e-18, No Iterations 1
DILUPBiCGStab:  Solving for ILambda_11_0, Initial residual = 0.00157323, Final residual = 4.136106e-18, No Iterations 1
DILUPBiCGStab:  Solving for ILambda_12_0, Initial residual = 0.001583796, Final residual = 5.71214e-05, No Iterations 4
DILUPBiCGStab:  Solving for ILambda_13_0, Initial residual = 0.003326752, Final residual = 0.0001154369, No Iterations 8
DILUPBiCGStab:  Solving for ILambda_14_0, Initial residual = 0.005083793, Final residual = 0.0004276024, No Iterations 6
DILUPBiCGStab:  Solving for ILambda_15_0, Initial residual = 0.007609424, Final residual = 0.0004344683, No Iterations 4
Radiation solver iter: 13
DILUPBiCGStab:  Solving for ILambda_0_0, Initial residual = 0.004801055, Final residual = 3.877803e-18, No Iterations 1
DILUPBiCGStab:  Solving for ILambda_1_0, Initial residual = 0.00192223, Final residual = 7.61942e-19, No Iterations 1
DILUPBiCGStab:  Solving for ILambda_6_0, Initial residual = 0.002490008, Final residual = 0.0001990331, No Iterations 2
DILUPBiCGStab:  Solving for ILambda_7_0, Initial residual = 0.006008192, Final residual = 0.0005900865, No Iterations 3
DILUPBiCGStab:  Solving for ILambda_8_0, Initial residual = 0.006482431, Final residual = 4.147459e-18, No Iterations 1
DILUPBiCGStab:  Solving for ILambda_9_0, Initial residual = 0.00471727, Final residual = 4.057357e-18, No Iterations 1
DILUPBiCGStab:  Solving for ILambda_10_0, Initial residual = 0.002647278, Final residual = 3.508025e-18, No Iterations 1
DILUPBiCGStab:  Solving for ILambda_11_0, Initial residual = 0.001223193, Final residual = 3.295016e-18, No Iterations 1
DILUPBiCGStab:  Solving for ILambda_12_0, Initial residual = 0.001228432, Final residual = 4.731609e-05, No Iterations 4
DILUPBiCGStab:  Solving for ILambda_13_0, Initial residual = 0.002589498, Final residual = 0.0002538307, No Iterations 6
DILUPBiCGStab:  Solving for ILambda_14_0, Initial residual = 0.004365678, Final residual = 0.0003696827, No Iterations 4
DILUPBiCGStab:  Solving for ILambda_15_0, Initial residual = 0.006549904, Final residual = 0.0003435718, No Iterations 4
Radiation solver iter: 14
DILUPBiCGStab:  Solving for ILambda_0_0, Initial residual = 0.004056008, Final residual = 3.016554e-18, No Iterations 1
DILUPBiCGStab:  Solving for ILambda_1_0, Initial residual = 0.001425295, Final residual = 5.713463e-19, No Iterations 1
DILUPBiCGStab:  Solving for ILambda_6_0, Initial residual = 0.001830987, Final residual = 0.0001312723, No Iterations 2
DILUPBiCGStab:  Solving for ILambda_7_0, Initial residual = 0.005114302, Final residual = 0.0003818759, No Iterations 3
DILUPBiCGStab:  Solving for ILambda_8_0, Initial residual = 0.005585769, Final residual = 3.986997e-18, No Iterations 1
DILUPBiCGStab:  Solving for ILambda_9_0, Initial residual = 0.003995771, Final residual = 3.184261e-18, No Iterations 1
DILUPBiCGStab:  Solving for ILambda_10_0, Initial residual = 0.002083769, Final residual = 2.648487e-18, No Iterations 1
DILUPBiCGStab:  Solving for ILambda_11_0, Initial residual = 0.0009448928, Final residual = 2.589503e-18, No Iterations 1
DILUPBiCGStab:  Solving for ILambda_12_0, Initial residual = 0.00094832, Final residual = 3.663881e-05, No Iterations 4
DILUPBiCGStab:  Solving for ILambda_13_0, Initial residual = 0.002077079, Final residual = 0.0001402727, No Iterations 8
DILUPBiCGStab:  Solving for ILambda_14_0, Initial residual = 0.003738251, Final residual = 0.0002631252, No Iterations 6
DILUPBiCGStab:  Solving for ILambda_15_0, Initial residual = 0.005661985, Final residual = 0.0004051227, No Iterations 3
GAMG:  Solving for p_rgh, Initial residual = 0.03926164, Final residual = 7.701678e-05, No Iterations 2
limitVelocity limitU Limited 0 (0%) of cells, with max limit 5
time step continuity errors : sum local = 0.000425763, global = -1.863601e-17, cumulative = 2.271812e-15
rho min/max : 0.4453126 0.9627862
DILUPBiCGStab:  Solving for omega, Initial residual = 0.0004249547, Final residual = 1.305119e-05, No Iterations 1
DILUPBiCGStab:  Solving for k, Initial residual = 0.0007171987, Final residual = 3.715137e-05, No Iterations 1
ExecutionTime = 0.63 s  ClockTime = 0 s

Time = 3502

DILUPBiCGStab:  Solving for h, Initial residual = 0.0003817668, Final residual = 1.944743e-07, No Iterations 1
limitTemperature limitT Lower limited 0 (0%) of cells, with min limit 280
limitTemperature limitT Upper limited 0 (0%) of cells, with max limit 1200
limitTemperature limitT Unlimited Tmin 415.365
limitTemperature limitT Unlimited Tmax 501.9672
GAMG:  Solving for p_rgh, Initial residual = 0.03268582, Final residual = 6.368789e-05, No Iterations 2
limitVelocity limitU Limited 0 (0%) of cells, with max limit 5
time step continuity errors : sum local = 0.0003814136, global = -3.628081e-17, cumulative = 2.235531e-15
rho min/max : 0.5312918 0.9574726
DILUPBiCGStab:  Solving for omega, Initial residual = 0.0002993168, Final residual = 1.00742e-05, No Iterations 1
DILUPBiCGStab:  Solving for k, Initial residual = 0.0006340355, Final residual = 3.624708e-05, No Iterations 1
ExecutionTime = 0.64 s  ClockTime = 0 s

Time = 3503

DILUPBiCGStab:  Solving for h, Initial residual = 0.0003056034, Final residual = 1.097016e-07, No Iterations 1
limitTemperature limitT Lower limited 0 (0%) of cells, with min limit 280
limitTemperature limitT Upper limited 0 (0%) of cells, with max limit 1200
limitTemperature limitT Unlimited Tmin 415.3833
limitTemperature limitT Unlimited Tmax 502.1866
GAMG:  Solving for p_rgh, Initial residual = 0.02782561, Final residual = 5.605732e-05, No Iterations 2
limitVelocity limitU Limited 0 (0%) of cells, with max limit 5
time step continuity errors : sum local = 0.0003456785, global = -5.975116e-17, cumulative = 2.17578e-15
rho min/max : 0.580993 0.9525291
DILUPBiCGStab:  Solving for omega, Initial residual = 0.0002231151, Final residual = 8.1172e-06, No Iterations 1
DILUPBiCGStab:  Solving for k, Initial residual = 0.0006164057, Final residual = 3.401908e-05, No Iterations 1
ExecutionTime = 0.65 s  ClockTime = 1 s

Time = 3504

DILUPBiCGStab:  Solving for h, Initial residual = 0.0003466536, Final residual = 1.956966e-07, No Iterations 1
limitTemperature limitT Lower limited 0 (0%) of cells, with min limit 280
limitTemperature limitT Upper limited 0 (0%) of cells, with max limit 1200
limitTemperature limitT Unlimited Tmin 415.4109
limitTemperature limitT Unlimited Tmax 501.6175
Radiation solver iter: 0
DILUPBiCGStab:  Solving for ILambda_0_0, Initial residual = 0.364866, Final residual = 3.708443e-15, No Iterations 1
DILUPBiCGStab:  Solving for ILambda_1_0, Initial residual = 0.5815677, Final residual = 4.071375e-15, No Iterations 1
DILUPBiCGStab:  Solving for ILambda_2_0, Initial residual = 0.7224902, Final residual = 4.141821e-15, No Iterations 1
DILUPBiCGStab:  Solving for ILambda_3_0, Initial residual = 0.8185602, Final residual = 4.467103e-15, No Iterations 1
DILUPBiCGStab:  Solving for ILambda_4_0, Initial residual = 0.8174306, Final residual = 0.0420295, No Iterations 5
DILUPBiCGStab:  Solving for ILambda_5_0, Initial residual = 0.7237815, Final residual = 0.01550612, No Iterations 11
DILUPBiCGStab:  Solving for ILambda_6_0, Initial residual = 0.5858092, Final residual = 0.001116158, No Iterations 20
DILUPBiCGStab:  Solving for ILambda_7_0, Initial residual = 0.3872711, Final residual = 0.03824751, No Iterations 32
DILUPBiCGStab:  Solving for ILambda_8_0, Initial residual = 0.6036892, Final residual = 4.981339e-15, No Iterations 1
DILUPBiCGStab:  Solving for ILambda_9_0, Initial residual = 0.7059791, Final residual = 4.603999e-15, No Iterations 1
DILUPBiCGStab:  Solving for ILambda_10_0, Initial residual = 0.7834187, Final residual = 4.236242e-15, No Iterations 1
DILUPBiCGStab:  Solving for ILambda_11_0, Initial residual = 0.8426666, Final residual = 4.100043e-15, No Iterations 1
DILUPBiCGStab:  Solving for ILambda_12_0, Initial residual = 0.8421815, Final residual = 0.003696558, No Iterations 5
DILUPBiCGStab:  Solving for ILambda_13_0, Initial residual = 0.7823923, Final residual = 0.04522187, No Iterations 12
DILUPBiCGStab:  Solving for ILambda_14_0, Initial residual = 0.7063305, Final residual = 0.05261973, No Iterations 17
DILUPBiCGStab:  Solving for ILambda_15_0, Initial residual = 0.6047768, Final residual = 0.04136009, No Iterations 30
Radiation solver iter: 1
DILUPBiCGStab:  Solving for ILambda_0_0, Initial residual = 0.1628925, Final residual = 6.747151e-16, No Iterations 1
DILUPBiCGStab:  Solving for ILambda_1_0, Initial residual = 0.1839105, Final residual = 6.267356e-16, No Iterations 1
DILUPBiCGStab:  Solving for ILambda_2_0, Initial residual = 0.2080768, Final residual = 6.70962e-16, No Iterations 1
DILUPBiCGStab:  Solving for ILambda_3_0, Initial residual = 0.2084846, Final residual = 8.571581e-16, No Iterations 1
DILUPBiCGStab:  Solving for ILambda_4_0, Initial residual = 0.3688316, Final residual = 0.03521469, No Iterations 4
DILUPBiCGStab:  Solving for ILambda_5_0, Initial residual = 0.2544606, Final residual = 0.02394855, No Iterations 9
DILUPBiCGStab:  Solving for ILambda_6_0, Initial residual = 0.1704356, Final residual = 0.007652318, No Iterations 15
DILUPBiCGStab:  Solving for ILambda_7_0, Initial residual = 0.2086275, Final residual = 0.01835196, No Iterations 17
DILUPBiCGStab:  Solving for ILambda_8_0, Initial residual = 0.06917456, Final residual = 3.439025e-16, No Iterations 1
DILUPBiCGStab:  Solving for ILambda_9_0, Initial residual = 0.08884877, Final residual = 4.003154e-16, No Iterations 1
DILUPBiCGStab:  Solving for ILambda_10_0, Initial residual = 0.1203332, Final residual = 4.957359e-16, No Iterations 1
DILUPBiCGStab:  Solving for ILambda_11_0, Initial residual = 0.1596585, Final residual = 6.981546e-16, No Iterations 1
DILUPBiCGStab:  Solving for ILambda_12_0, Initial residual = 0.1984693, Final residual = 0.01852933, No Iterations 3
DILUPBiCGStab:  Solving for ILambda_13_0, Initial residual = 0.305663, Final residual = 0.007020494, No Iterations 8
DILUPBiCGStab:  Solving for ILambda_14_0, Initial residual = 0.2859922, Final residual = 0.01229211, No Iterations 12
DILUPBiCGStab:  Solving for ILambda_15_0, Initial residual = 0.2242653, Final residual = 0.01057405, No Iterations 20
Radiation solver iter: 2
DILUPBiCGStab:  Solving for ILambda_0_0, Initial residual = 0.09005817, Final residual = 1.989727e-16, No Iterations 1
DILUPBiCGStab:  Solving for ILambda_1_0, Initial residual = 0.09332691, Final residual = 1.308868e-16, No Iterations 1
DILUPBiCGStab:  Solving for ILambda_2_0, Initial residual = 0.08981328, Final residual = 1.02036e-16, No Iterations 1
DILUPBiCGStab:  Solving for ILambda_3_0, Initial residual = 0.0599221, Final residual = 8.337942e-17, No Iterations 1
DILUPBiCGStab:  Solving for ILambda_4_0, Initial residual = 0.09416359, Final residual = 0.00795463, No Iterations 2
DILUPBiCGStab:  Solving for ILambda_5_0, Initial residual = 0.1108577, Final residual = 0.008420853, No Iterations 6
DILUPBiCGStab:  Solving for ILambda_6_0, Initial residual = 0.1050736, Final residual = 0.005813272, No Iterations 8
DILUPBiCGStab:  Solving for ILambda_7_0, Initial residual = 0.1120612, Final residual = 0.007270995, No Iterations 11
DILUPBiCGStab:  Solving for ILambda_8_0, Initial residual = 0.02826959, Final residual = 5.015004e-17, No Iterations 1
DILUPBiCGStab:  Solving for ILambda_9_0, Initial residual = 0.03401871, Final residual = 5.158639e-17, No Iterations 1
DILUPBiCGStab:  Solving for ILambda_10_0, Initial residual = 0.03960279, Final residual = 7.147259e-17, No Iterations 1
DILUPBiCGStab:  Solving for ILambda_11_0, Initial residual = 0.03953128, Final residual = 1.048982e-16, No Iterations 1
DILUPBiCGStab:  Solving for ILambda_12_0, Initial residual = 0.05687133, Final residual = 0.003286553, No Iterations 4
DILUPBiCGStab:  Solving for ILambda_13_0, Initial residual = 0.06530299, Final residual = 0.001802818, No Iterations 8
DILUPBiCGStab:  Solving for ILambda_14_0, Initial residual = 0.07586884, Final residual = 0.006961838, No Iterations 10
DILUPBiCGStab:  Solving for ILambda_15_0, Initial residual = 0.08233079, Final residual = 0.007221842, No Iterations 10
Radiation solver iter: 3
DILUPBiCGStab:  Solving for ILambda_0_0, Initial residual = 0.07584389, Final residual = 1.363309e-16, No Iterations 1
DILUPBiCGStab:  Solving for ILambda_1_0, Initial residual = 0.07084829, Final residual = 7.156482e-17, No Iterations 1
DILUPBiCGStab:  Solving for ILambda_2_0, Initial residual = 0.0565369, Final residual = 4.602543e-17, No Iterations 1
DILUPBiCGStab:  Solving for ILambda_3_0, Initial residual = 0.02324247, Final residual = 2.310753e-17, No Iterations 1
DILUPBiCGStab:  Solving for ILambda_4_0, Initial residual = 0.02767696, Final residual = 0.001481525, No Iterations 2
DILUPBiCGStab:  Solving for ILambda_5_0, Initial residual = 0.07137547, Final residual = 0.001122018, No Iterations 7
DILUPBiCGStab:  Solving for ILambda_6_0, Initial residual = 0.08711397, Final residual = 0.007473548, No Iterations 5
DILUPBiCGStab:  Solving for ILambda_7_0, Initial residual = 0.09030784, Final residual = 0.008101481, No Iterations 6
DILUPBiCGStab:  Solving for ILambda_8_0, Initial residual = 0.02274272, Final residual = 3.229956e-17, No Iterations 1
DILUPBiCGStab:  Solving for ILambda_9_0, Initial residual = 0.02866872, Final residual = 4.299212e-17, No Iterations 1
DILUPBiCGStab:  Solving for ILambda_10_0, Initial residual = 0.03090374, Final residual = 5.552838e-17, No Iterations 1
DILUPBiCGStab:  Solving for ILambda_11_0, Initial residual = 0.02683228, Final residual = 7.265213e-17, No Iterations 1
DILUPBiCGStab:  Solving for ILambda_12_0, Initial residual = 0.03043323, Final residual = 0.001915708, No Iterations 4
DILUPBiCGStab:  Solving for ILambda_13_0, Initial residual = 0.04461317, Final residual = 0.002061291, No Iterations 9
DILUPBiCGStab:  Solving for ILambda_14_0, Initial residual = 0.05349309, Final residual = 0.00479301, No Iterations 9
DILUPBiCGStab:  Solving for ILambda_15_0, Initial residual = 0.06396345, Final residual = 0.003653206, No Iterations 9
Radiation solver iter: 4
DILUPBiCGStab:  Solving for ILambda_0_0, Initial residual = 0.06845805, Final residual = 9.810577e-17, No Iterations 1
DILUPBiCGStab:  Solving for ILambda_1_0, Initial residual = 0.05743272, Final residual = 5.314857e-17, No Iterations 1
DILUPBiCGStab:  Solving for ILambda_2_0, Initial residual = 0.03880765, Final residual = 2.871126e-17, No Iterations 1
DILUPBiCGStab:  Solving for ILambda_3_0, Initial residual = 0.009780292, Final residual = 9.745128e-18, No Iterations 1
DILUPBiCGStab:  Solving for ILambda_4_0, Initial residual = 0.009844909, Final residual = 0.0007973027, No Iterations 2
DILUPBiCGStab:  Solving for ILambda_5_0, Initial residual = 0.04889914, Final residual = 0.002968348, No Iterations 4
DILUPBiCGStab:  Solving for ILambda_6_0, Initial residual = 0.07475178, Final residual = 0.007181539, No Iterations 4
DILUPBiCGStab:  Solving for ILambda_7_0, Initial residual = 0.08328744, Final residual = 0.0023986, No Iterations 8
DILUPBiCGStab:  Solving for ILambda_8_0, Initial residual = 0.01952089, Final residual = 2.369786e-17, No Iterations 1
DILUPBiCGStab:  Solving for ILambda_9_0, Initial residual = 0.02451617, Final residual = 3.390895e-17, No Iterations 1
DILUPBiCGStab:  Solving for ILambda_10_0, Initial residual = 0.02343554, Final residual = 4.19135e-17, No Iterations 1
DILUPBiCGStab:  Solving for ILambda_11_0, Initial residual = 0.01716711, Final residual = 4.982919e-17, No Iterations 1
DILUPBiCGStab:  Solving for ILambda_12_0, Initial residual = 0.01931111, Final residual = 0.001857425, No Iterations 3
DILUPBiCGStab:  Solving for ILambda_13_0, Initial residual = 0.03396949, Final residual = 0.003281216, No Iterations 7
DILUPBiCGStab:  Solving for ILambda_14_0, Initial residual = 0.04482791, Final residual = 0.0006521686, No Iterations 13
DILUPBiCGStab:  Solving for ILambda_15_0, Initial residual = 0.05468444, Final residual = 0.004741336, No Iterations 7
Radiation solver iter: 5
DILUPBiCGStab:  Solving for ILambda_0_0, Initial residual = 0.06296833, Final residual = 8.662687e-17, No Iterations 1
DILUPBiCGStab:  Solving for ILambda_1_0, Initial residual = 0.04782324, Final residual = 4.040732e-17, No Iterations 1
DILUPBiCGStab:  Solving for ILambda_2_0, Initial residual = 0.02719545, Final residual = 1.895637e-17, No Iterations 1
DILUPBiCGStab:  Solving for ILambda_3_0, Initial residual = 0.0038373, Final residual = 3.660382e-18, No Iterations 1
DILUPBiCGStab:  Solving for ILambda_4_0, Initial residual = 0.003702174, Final residual = 0.000332344, No Iterations 2
DILUPBiCGStab:  Solving for ILambda_5_0, Initial residual = 0.03502426, Final residual = 0.001708799, No Iterations 4
DILUPBiCGStab:  Solving for ILambda_6_0, Initial residual = 0.06629788, Final residual = 0.003019914, No Iterations 4
DILUPBiCGStab:  Solving for ILambda_7_0, Initial residual = 0.07607133, Final residual = 0.006789108, No Iterations 4
DILUPBiCGStab:  Solving for ILambda_8_0, Initial residual = 0.01721789, Final residual = 1.935461e-17, No Iterations 1
DILUPBiCGStab:  Solving for ILambda_9_0, Initial residual = 0.02096078, Final residual = 2.569077e-17, No Iterations 1
DILUPBiCGStab:  Solving for ILambda_10_0, Initial residual = 0.01764984, Final residual = 3.024208e-17, No Iterations 1
DILUPBiCGStab:  Solving for ILambda_11_0, Initial residual = 0.01181575, Final residual = 3.257135e-17, No Iterations 1
DILUPBiCGStab:  Solving for ILambda_12_0, Initial residual = 0.01343212, Final residual = 0.001010663, No Iterations 4
DILUPBiCGStab:  Solving for ILambda_13_0, Initial residual = 0.02556278, Final residual = 0.002143931, No Iterations 8
DILUPBiCGStab:  Solving for ILambda_14_0, Initial residual = 0.03639987, Final residual = 0.003357508, No Iterations 7
DILUPBiCGStab:  Solving for ILambda_15_0, Initial residual = 0.04951108, Final residual = 0.004880485, No Iterations 5
Radiation solver iter: 6
DILUPBiCGStab:  Solving for ILambda_0_0, Initial residual = 0.05824769, Final residual = 6.612756e-17, No Iterations 1
DILUPBiCGStab:  Solving for ILambda_1_0, Initial residual = 0.03993031, Final residual = 2.787185e-17, No Iterations 1
DILUPBiCGStab:  Solving for ILambda_2_0, Initial residual = 0.01891325, Final residual = 1.265216e-17, No Iterations 1
DILUPBiCGStab:  Solving for ILambda_3_0, Initial residual = 0.001494059, Final residual = 1.33502e-18, No Iterations 1
DILUPBiCGStab:  Solving for ILambda_4_0, Initial residual = 0.001510345, Final residual = 0.0001078527, No Iterations 2
DILUPBiCGStab:  Solving for ILambda_5_0, Initial residual = 0.02409728, Final residual = 0.002053059, No Iterations 3
DILUPBiCGStab:  Solving for ILambda_6_0, Initial residual = 0.05718429, Final residual = 0.00429136, No Iterations 3
DILUPBiCGStab:  Solving for ILambda_7_0, Initial residual = 0.07233518, Final residual = 0.003952614, No Iterations 5
DILUPBiCGStab:  Solving for ILambda_8_0, Initial residual = 0.01518544, Final residual = 1.561243e-17, No Iterations 1
DILUPBiCGStab:  Solving for ILambda_9_0, Initial residual = 0.01759837, Final residual = 2.10292e-17, No Iterations 1
DILUPBiCGStab:  Solving for ILambda_10_0, Initial residual = 0.01352855, Final residual = 2.125583e-17, No Iterations 1
DILUPBiCGStab:  Solving for ILambda_11_0, Initial residual = 0.008857036, Final residual = 2.39468e-17, No Iterations 1
DILUPBiCGStab:  Solving for ILambda_12_0, Initial residual = 0.009793641, Final residual = 0.0005156116, No Iterations 4
DILUPBiCGStab:  Solving for ILambda_13_0, Initial residual = 0.01902098, Final residual = 0.000977291, No Iterations 8
DILUPBiCGStab:  Solving for ILambda_14_0, Initial residual = 0.03070253, Final residual = 0.003004057, No Iterations 7
DILUPBiCGStab:  Solving for ILambda_15_0, Initial residual = 0.04425008, Final residual = 0.003950014, No Iterations 6
Radiation solver iter: 7
DILUPBiCGStab:  Solving for ILambda_0_0, Initial residual = 0.05384161, Final residual = 5.64042e-17, No Iterations 1
DILUPBiCGStab:  Solving for ILambda_1_0, Initial residual = 0.0332182, Final residual = 2.049376e-17, No Iterations 1
DILUPBiCGStab:  Solving for ILambda_2_0, Initial residual = 0.01280216, Final residual = 8.034173e-18, No Iterations 1
DILUPBiCGStab:  Solving for ILambda_3_0, Initial residual = 0.0006037076, Final residual = 7.720421e-19, No Iterations 1
DILUPBiCGStab:  Solving for ILambda_4_0, Initial residual = 0.0006496835, Final residual = 7.951164e-05, No Iterations 2
DILUPBiCGStab:  Solving for ILambda_5_0, Initial residual = 0.01644452, Final residual = 0.0008097634, No Iterations 3
DILUPBiCGStab:  Solving for ILambda_6_0, Initial residual = 0.04886726, Final residual = 0.003987411, No Iterations 2
DILUPBiCGStab:  Solving for ILambda_7_0, Initial residual = 0.06736816, Final residual = 0.005252245, No Iterations 3
DILUPBiCGStab:  Solving for ILambda_8_0, Initial residual = 0.01327426, Final residual = 1.15574e-17, No Iterations 1
DILUPBiCGStab:  Solving for ILambda_9_0, Initial residual = 0.01469183, Final residual = 1.574687e-17, No Iterations 1
DILUPBiCGStab:  Solving for ILambda_10_0, Initial residual = 0.01101365, Final residual = 1.623092e-17, No Iterations 1
DILUPBiCGStab:  Solving for ILambda_11_0, Initial residual = 0.007276611, Final residual = 1.948121e-17, No Iterations 1
DILUPBiCGStab:  Solving for ILambda_12_0, Initial residual = 0.0081429, Final residual = 0.0001424431, No Iterations 5
DILUPBiCGStab:  Solving for ILambda_13_0, Initial residual = 0.01540802, Final residual = 0.0006891299, No Iterations 8
DILUPBiCGStab:  Solving for ILambda_14_0, Initial residual = 0.025276, Final residual = 0.002427892, No Iterations 7
DILUPBiCGStab:  Solving for ILambda_15_0, Initial residual = 0.03882158, Final residual = 0.002019529, No Iterations 6
Radiation solver iter: 8
DILUPBiCGStab:  Solving for ILambda_0_0, Initial residual = 0.04930675, Final residual = 5.630405e-17, No Iterations 1
DILUPBiCGStab:  Solving for ILambda_1_0, Initial residual = 0.02741346, Final residual = 1.782388e-17, No Iterations 1
DILUPBiCGStab:  Solving for ILambda_2_0, Initial residual = 0.008348275, Final residual = 4.35007e-18, No Iterations 1
DILUPBiCGStab:  Solving for ILambda_5_0, Initial residual = 0.01060491, Final residual = 0.0004305448, No Iterations 3
DILUPBiCGStab:  Solving for ILambda_6_0, Initial residual = 0.04091332, Final residual = 0.003106344, No Iterations 2
DILUPBiCGStab:  Solving for ILambda_7_0, Initial residual = 0.06294212, Final residual = 0.005758485, No Iterations 3
DILUPBiCGStab:  Solving for ILambda_8_0, Initial residual = 0.01154121, Final residual = 1.002489e-17, No Iterations 1
DILUPBiCGStab:  Solving for ILambda_9_0, Initial residual = 0.01233496, Final residual = 1.366965e-17, No Iterations 1
DILUPBiCGStab:  Solving for ILambda_10_0, Initial residual = 0.009446493, Final residual = 1.288365e-17, No Iterations 1
DILUPBiCGStab:  Solving for ILambda_11_0, Initial residual = 0.006162027, Final residual = 1.576119e-17, No Iterations 1
DILUPBiCGStab:  Solving for ILambda_12_0, Initial residual = 0.006965438, Final residual = 0.000378604, No Iterations 4
DILUPBiCGStab:  Solving for ILambda_13_0, Initial residual = 0.01325368, Final residual = 0.0008635215, No Iterations 8
DILUPBiCGStab:  Solving for ILambda_14_0, Initial residual = 0.02064537, Final residual = 0.002004276, No Iterations 5
DILUPBiCGStab:  Solving for ILambda_15_0, Initial residual = 0.0332843, Final residual = 0.003206153, No Iterations 4
Radiation solver iter: 9
DILUPBiCGStab:  Solving for ILambda_0_0, Initial residual = 0.04491566, Final residual = 4.133997e-17, No Iterations 1
DILUPBiCGStab:  Solving for ILambda_1_0, Initial residual = 0.02228492, Final residual = 1.284827e-17, No Iterations 1
DILUPBiCGStab:  Solving for ILambda_2_0, Initial residual = 0.005269148, Final residual = 2.910937e-18, No Iterations 1
DILUPBiCGStab:  Solving for ILambda_5_0, Initial residual = 0.006541296, Final residual = 0.0002250904, No Iterations 3
DILUPBiCGStab:  Solving for ILambda_6_0, Initial residual = 0.03340942, Final residual = 0.002420355, No Iterations 2
DILUPBiCGStab:  Solving for ILambda_7_0, Initial residual = 0.05839421, Final residual = 0.005768038, No Iterations 3
DILUPBiCGStab:  Solving for ILambda_8_0, Initial residual = 0.01001097, Final residual = 7.4091e-18, No Iterations 1
DILUPBiCGStab:  Solving for ILambda_9_0, Initial residual = 0.01048225, Final residual = 1.097284e-17, No Iterations 1
DILUPBiCGStab:  Solving for ILambda_10_0, Initial residual = 0.008144192, Final residual = 1.100858e-17, No Iterations 1
DILUPBiCGStab:  Solving for ILambda_11_0, Initial residual = 0.005096217, Final residual = 1.382097e-17, No Iterations 1
DILUPBiCGStab:  Solving for ILambda_12_0, Initial residual = 0.005907401, Final residual = 0.000256102, No Iterations 4
DILUPBiCGStab:  Solving for ILambda_13_0, Initial residual = 0.0115756, Final residual = 0.0008591561, No Iterations 7
DILUPBiCGStab:  Solving for ILambda_14_0, Initial residual = 0.01731666, Final residual = 0.0007575115, No Iterations 8
DILUPBiCGStab:  Solving for ILambda_15_0, Initial residual = 0.02944982, Final residual = 0.002039537, No Iterations 5
Radiation solver iter: 10
DILUPBiCGStab:  Solving for ILambda_0_0, Initial residual = 0.04051988, Final residual = 3.850036e-17, No Iterations 1
DILUPBiCGStab:  Solving for ILambda_1_0, Initial residual = 0.01786522, Final residual = 9.597397e-18, No Iterations 1
DILUPBiCGStab:  Solving for ILambda_2_0, Initial residual = 0.003194855, Final residual = 1.607292e-18, No Iterations 1
DILUPBiCGStab:  Solving for ILambda_5_0, Initial residual = 0.003882648, Final residual = 0.0001251445, No Iterations 3
DILUPBiCGStab:  Solving for ILambda_6_0, Initial residual = 0.02657263, Final residual = 0.001763063, No Iterations 2
DILUPBiCGStab:  Solving for ILambda_7_0, Initial residual = 0.05334542, Final residual = 0.002759301, No Iterations 4
DILUPBiCGStab:  Solving for ILambda_8_0, Initial residual = 0.008663406, Final residual = 6.12193e-18, No Iterations 1
DILUPBiCGStab:  Solving for ILambda_9_0, Initial residual = 0.008986494, Final residual = 8.025715e-18, No Iterations 1
DILUPBiCGStab:  Solving for ILambda_10_0, Initial residual = 0.006929977, Final residual = 9.724513e-18, No Iterations 1
DILUPBiCGStab:  Solving for ILambda_11_0, Initial residual = 0.004124648, Final residual = 1.071791e-17, No Iterations 1
DILUPBiCGStab:  Solving for ILambda_12_0, Initial residual = 0.004736968, Final residual = 0.0002140407, No Iterations 4
DILUPBiCGStab:  Solving for ILambda_13_0, Initial residual = 0.009868741, Final residual = 0.0003899282, No Iterations 8
DILUPBiCGStab:  Solving for ILambda_14_0, Initial residual = 0.01478695, Final residual = 0.0007333583, No Iterations 9
DILUPBiCGStab:  Solving for ILambda_15_0, Initial residual = 0.02503785, Final residual = 0.002351327, No Iterations 4
Radiation solver iter: 11
DILUPBiCGStab:  Solving for ILambda_0_0, Initial residual = 0.03627334, Final residual = 3.034338e-17, No Iterations 1
DILUPBiCGStab:  Solving for ILambda_1_0, Initial residual = 0.0141012, Final residual = 7.819798e-18, No Iterations 1
DILUPBiCGStab:  Solving for ILambda_2_0, Initial residual = 0.001864541, Final residual = 8.165291e-19, No Iterations 1
DILUPBiCGStab:  Solving for ILambda_5_0, Initial residual = 0.002243302, Final residual = 7.657739e-05, No Iterations 3
DILUPBiCGStab:  Solving for ILambda_6_0, Initial residual = 0.02064725, Final residual = 0.001213563, No Iterations 2
DILUPBiCGStab:  Solving for ILambda_7_0, Initial residual = 0.04704112, Final residual = 0.004691839, No Iterations 2
DILUPBiCGStab:  Solving for ILambda_8_0, Initial residual = 0.007497421, Final residual = 5.126938e-18, No Iterations 1
DILUPBiCGStab:  Solving for ILambda_9_0, Initial residual = 0.007744402, Final residual = 6.964144e-18, No Iterations 1
DILUPBiCGStab:  Solving for ILambda_10_0, Initial residual = 0.005751182, Final residual = 7.837567e-18, No Iterations 1
DILUPBiCGStab:  Solving for ILambda_11_0, Initial residual = 0.003233425, Final residual = 8.504374e-18, No Iterations 1
DILUPBiCGStab:  Solving for ILambda_12_0, Initial residual = 0.003694236, Final residual = 0.0001419811, No Iterations 4
DILUPBiCGStab:  Solving for ILambda_13_0, Initial residual = 0.008110984, Final residual = 0.0007555537, No Iterations 6
DILUPBiCGStab:  Solving for ILambda_14_0, Initial residual = 0.0127929, Final residual = 0.001244672, No Iterations 5
DILUPBiCGStab:  Solving for ILambda_15_0, Initial residual = 0.02179813, Final residual = 0.001144476, No Iterations 5
Radiation solver iter: 12
DILUPBiCGStab:  Solving for ILambda_0_0, Initial residual = 0.03211617, Final residual = 2.605792e-17, No Iterations 1
DILUPBiCGStab:  Solving for ILambda_1_0, Initial residual = 0.0109419, Final residual = 4.689788e-18, No Iterations 1
DILUPBiCGStab:  Solving for ILambda_2_0, Initial residual = 0.001062615, Final residual = 5.667864e-19, No Iterations 1
DILUPBiCGStab:  Solving for ILambda_5_0, Initial residual = 0.001264858, Final residual = 5.205136e-05, No Iterations 3
DILUPBiCGStab:  Solving for ILambda_6_0, Initial residual = 0.0156686, Final residual = 0.001450306, No Iterations 2
DILUPBiCGStab:  Solving for ILambda_7_0, Initial residual = 0.04216395, Final residual = 0.003841084, No Iterations 3
DILUPBiCGStab:  Solving for ILambda_8_0, Initial residual = 0.006504823, Final residual = 4.65757e-18, No Iterations 1
DILUPBiCGStab:  Solving for ILambda_9_0, Initial residual = 0.006691404, Final residual = 5.906494e-18, No Iterations 1
DILUPBiCGStab:  Solving for ILambda_10_0, Initial residual = 0.004680459, Final residual = 6.164574e-18, No Iterations 1
DILUPBiCGStab:  Solving for ILambda_11_0, Initial residual = 0.002511186, Final residual = 6.344914e-18, No Iterations 1
DILUPBiCGStab:  Solving for ILambda_12_0, Initial residual = 0.002851352, Final residual = 0.0001073943, No Iterations 4
DILUPBiCGStab:  Solving for ILambda_13_0, Initial residual = 0.006666069, Final residual = 0.0002725514, No Iterations 8
DILUPBiCGStab:  Solving for ILambda_14_0, Initial residual = 0.01122353, Final residual = 0.0008618536, No Iterations 6
DILUPBiCGStab:  Solving for ILambda_15_0, Initial residual = 0.01866184, Final residual = 0.000362951, No Iterations 6
Radiation solver iter: 13
DILUPBiCGStab:  Solving for ILambda_0_0, Initial residual = 0.02817971, Final residual = 2.114838e-17, No Iterations 1
DILUPBiCGStab:  Solving for ILambda_1_0, Initial residual = 0.008342662, Final residual = 3.881769e-18, No Iterations 1
DILUPBiCGStab:  Solving for ILambda_2_0, Initial residual = 0.000595299, Final residual = 2.695771e-19, No Iterations 1
DILUPBiCGStab:  Solving for ILambda_5_0, Initial residual = 0.000701861, Final residual = 8.714534e-05, No Iterations 2
DILUPBiCGStab:  Solving for ILambda_6_0, Initial residual = 0.01175632, Final residual = 0.000928889, No Iterations 2
DILUPBiCGStab:  Solving for ILambda_7_0, Initial residual = 0.03734109, Final residual = 0.001736035, No Iterations 4
DILUPBiCGStab:  Solving for ILambda_8_0, Initial residual = 0.00563967, Final residual = 5.097833e-18, No Iterations 1
DILUPBiCGStab:  Solving for ILambda_9_0, Initial residual = 0.005775977, Final residual = 5.36977e-18, No Iterations 1
DILUPBiCGStab:  Solving for ILambda_10_0, Initial residual = 0.003763511, Final residual = 5.038176e-18, No Iterations 1
DILUPBiCGStab:  Solving for ILambda_11_0, Initial residual = 0.001950971, Final residual = 5.191222e-18, No Iterations 1
DILUPBiCGStab:  Solving for ILambda_12_0, Initial residual = 0.002216775, Final residual = 8.051429e-05, No Iterations 4
DILUPBiCGStab:  Solving for ILambda_13_0, Initial residual = 0.005227993, Final residual = 0.0004091458, No Iterations 6
DILUPBiCGStab:  Solving for ILambda_14_0, Initial residual = 0.009825888, Final residual = 0.0008295831, No Iterations 6
DILUPBiCGStab:  Solving for ILambda_15_0, Initial residual = 0.01609858, Final residual = 0.001197635, No Iterations 3
Radiation solver iter: 14
DILUPBiCGStab:  Solving for ILambda_0_0, Initial residual = 0.02448274, Final residual = 1.855658e-17, No Iterations 1
DILUPBiCGStab:  Solving for ILambda_1_0, Initial residual = 0.006247815, Final residual = 2.566809e-18, No Iterations 1
DILUPBiCGStab:  Solving for ILambda_6_0, Initial residual = 0.008682393, Final residual = 0.0006132138, No Iterations 2
DILUPBiCGStab:  Solving for ILambda_7_0, Initial residual = 0.03202428, Final residual = 0.002439003, No Iterations 2
DILUPBiCGStab:  Solving for ILambda_8_0, Initial residual = 0.004892569, Final residual = 3.292617e-18, No Iterations 1
DILUPBiCGStab:  Solving for ILambda_9_0, Initial residual = 0.004945815, Final residual = 4.096531e-18, No Iterations 1
DILUPBiCGStab:  Solving for ILambda_10_0, Initial residual = 0.002978217, Final residual = 4.03615e-18, No Iterations 1
DILUPBiCGStab:  Solving for ILambda_11_0, Initial residual = 0.001497899, Final residual = 3.929306e-18, No Iterations 1
DILUPBiCGStab:  Solving for ILambda_12_0, Initial residual = 0.001704658, Final residual = 6.246258e-05, No Iterations 4
DILUPBiCGStab:  Solving for ILambda_13_0, Initial residual = 0.00414852, Final residual = 0.0002050217, No Iterations 7
DILUPBiCGStab:  Solving for ILambda_14_0, Initial residual = 0.008378956, Final residual = 0.0002184291, No Iterations 9
DILUPBiCGStab:  Solving for ILambda_15_0, Initial residual = 0.01408085, Final residual = 0.001139158, No Iterations 3
GAMG:  Solving for p_rgh, Initial residual = 0.02121863, Final residual = 4.81622e-05, No Iterations 2
limitVelocity limitU Limited 0 (0%) of cells, with max limit 5
time step continuity errors : sum local = 0.0002992966, global = 6.276412e-18, cumulative = 2.182056e-15
rho min/max : 0.6347963 1.057564
DILUPBiCGStab:  Solving for omega, Initial residual = 0.0003268341, Final residual = 9.528792e-06, No Iterations 1
DILUPBiCGStab:  Solving for k, Initial residual = 0.0005578556, Final residual = 3.011733e-05, No Iterations 1
ExecutionTime = 1.15 s  ClockTime = 1 s

Time = 3505

DILUPBiCGStab:  Solving for h, Initial residual = 0.0002458254, Final residual = 1.258861e-07, No Iterations 1
limitTemperature limitT Lower limited 0 (0%) of cells, with min limit 280
limitTemperature limitT Upper limited 0 (0%) of cells, with max limit 1200
limitTemperature limitT Unlimited Tmin 415.4462
limitTemperature limitT Unlimited Tmax 500.403
GAMG:  Solving for p_rgh, Initial residual = 0.01452111, Final residual = 4.133199e-05, No Iterations 2
limitVelocity limitU Limited 0 (0%) of cells, with max limit 5
time step continuity errors : sum local = 0.0002488085, global = 3.046556e-17, cumulative = 2.212522e-15
rho min/max : 0.6162998 0.9505535
DILUPBiCGStab:  Solving for omega, Initial residual = 0.0002427355, Final residual = 7.42537e-06, No Iterations 1
DILUPBiCGStab:  Solving for k, Initial residual = 0.0005681111, Final residual = 3.038408e-05, No Iterations 1
ExecutionTime = 1.16 s  ClockTime = 1 s

Time = 3506

DILUPBiCGStab:  Solving for h, Initial residual = 0.0002202333, Final residual = 6.113918e-08, No Iterations 1
limitTemperature limitT Lower limited 0 (0%) of cells, with min limit 280
limitTemperature limitT Upper limited 0 (0%) of cells, with max limit 1200
limitTemperature limitT Unlimited Tmin 415.4653
limitTemperature limitT Unlimited Tmax 499.7231
GAMG:  Solving for p_rgh, Initial residual = 0.01007786, Final residual = 3.499188e-05, No Iterations 2
limitVelocity limitU Limited 0 (0%) of cells, with max limit 5
time step continuity errors : sum local = 0.0002005287, global = -7.765009e-18, cumulative = 2.204757e-15
rho min/max : 0.5858457 0.9530386
DILUPBiCGStab:  Solving for omega, Initial residual = 0.0001938061, Final residual = 7.493046e-06, No Iterations 1
DILUPBiCGStab:  Solving for k, Initial residual = 0.0005607854, Final residual = 3.021217e-05, No Iterations 1
ExecutionTime = 1.17 s  ClockTime = 1 s

Time = 3507

DILUPBiCGStab:  Solving for h, Initial residual = 0.0002448428, Final residual = 1.040856e-07, No Iterations 1
limitTemperature limitT Lower limited 0 (0%) of cells, with min limit 280
limitTemperature limitT Upper limited 0 (0%) of cells, with max limit 1200
limitTemperature limitT Unlimited Tmin 415.4772
limitTemperature limitT Unlimited Tmax 499.5072
Radiation solver iter: 0
DILUPBiCGStab:  Solving for ILambda_0_0, Initial residual = 0.349576, Final residual = 3.40416e-15, No Iterations 1
DILUPBiCGStab:  Solving for ILambda_1_0, Initial residual = 0.5304786, Final residual = 3.604252e-15, No Iterations 1
DILUPBiCGStab:  Solving for ILambda_2_0, Initial residual = 0.6236875, Final residual = 3.36822e-15, No Iterations 1
DILUPBiCGStab:  Solving for ILambda_3_0, Initial residual = 0.6871982, Final residual = 3.616249e-15, No Iterations 1
DILUPBiCGStab:  Solving for ILambda_4_0, Initial residual = 0.7002192, Final residual = 0.05713252, No Iterations 4
DILUPBiCGStab:  Solving for ILambda_5_0, Initial residual = 0.6592988, Final residual = 0.03397889, No Iterations 11
DILUPBiCGStab:  Solving for ILambda_6_0, Initial residual = 0.5849558, Final residual = 0.03997314, No Iterations 15
DILUPBiCGStab:  Solving for ILambda_7_0, Initial residual = 0.4127207, Final residual = 0.002266793, No Iterations 32
DILUPBiCGStab:  Solving for ILambda_8_0, Initial residual = 0.2118288, Final residual = 1.674025e-15, No Iterations 1
DILUPBiCGStab:  Solving for ILambda_9_0, Initial residual = 0.374093, Final residual = 2.343383e-15, No Iterations 1
DILUPBiCGStab:  Solving for ILambda_10_0, Initial residual = 0.4957663, Final residual = 2.748167e-15, No Iterations 1
DILUPBiCGStab:  Solving for ILambda_11_0, Initial residual = 0.6016351, Final residual = 3.145778e-15, No Iterations 1
DILUPBiCGStab:  Solving for ILambda_12_0, Initial residual = 0.6447369, Final residual = 0.01077587, No Iterations 6
DILUPBiCGStab:  Solving for ILambda_13_0, Initial residual = 0.6027496, Final residual = 0.00156015, No Iterations 12
DILUPBiCGStab:  Solving for ILambda_14_0, Initial residual = 0.5360537, Final residual = 0.05186535, No Iterations 14
DILUPBiCGStab:  Solving for ILambda_15_0, Initial residual = 0.4269544, Final residual = 0.02933676, No Iterations 27
Radiation solver iter: 1
DILUPBiCGStab:  Solving for ILambda_0_0, Initial residual = 0.06675044, Final residual = 2.38985e-16, No Iterations 1
DILUPBiCGStab:  Solving for ILambda_1_0, Initial residual = 0.08353723, Final residual = 2.382436e-16, No Iterations 1
DILUPBiCGStab:  Solving for ILambda_2_0, Initial residual = 0.1060197, Final residual = 3.116444e-16, No Iterations 1
DILUPBiCGStab:  Solving for ILambda_3_0, Initial residual = 0.1259516, Final residual = 4.496791e-16, No Iterations 1
DILUPBiCGStab:  Solving for ILambda_4_0, Initial residual = 0.3230438, Final residual = 0.00566441, No Iterations 4
DILUPBiCGStab:  Solving for ILambda_5_0, Initial residual = 0.1741733, Final residual = 0.0173582, No Iterations 8
DILUPBiCGStab:  Solving for ILambda_6_0, Initial residual = 0.1312935, Final residual = 0.01207265, No Iterations 10
DILUPBiCGStab:  Solving for ILambda_7_0, Initial residual = 0.06096788, Final residual = 0.006071044, No Iterations 21
DILUPBiCGStab:  Solving for ILambda_8_0, Initial residual = 0.02429322, Final residual = 8.002251e-17, No Iterations 1
DILUPBiCGStab:  Solving for ILambda_9_0, Initial residual = 0.03220643, Final residual = 9.980199e-17, No Iterations 1
DILUPBiCGStab:  Solving for ILambda_10_0, Initial residual = 0.04143631, Final residual = 1.37093e-16, No Iterations 1
DILUPBiCGStab:  Solving for ILambda_11_0, Initial residual = 0.04747772, Final residual = 1.863962e-16, No Iterations 1
DILUPBiCGStab:  Solving for ILambda_12_0, Initial residual = 0.08124093, Final residual = 0.0007378321, No Iterations 5
DILUPBiCGStab:  Solving for ILambda_13_0, Initial residual = 0.0657773, Final residual = 0.003699315, No Iterations 10
DILUPBiCGStab:  Solving for ILambda_14_0, Initial residual = 0.1609839, Final residual = 0.01247143, No Iterations 12
DILUPBiCGStab:  Solving for ILambda_15_0, Initial residual = 0.1143216, Final residual = 0.01143122, No Iterations 17
Radiation solver iter: 2
DILUPBiCGStab:  Solving for ILambda_0_0, Initial residual = 0.04019404, Final residual = 8.323939e-17, No Iterations 1
DILUPBiCGStab:  Solving for ILambda_1_0, Initial residual = 0.04734331, Final residual = 5.877456e-17, No Iterations 1
DILUPBiCGStab:  Solving for ILambda_2_0, Initial residual = 0.04980452, Final residual = 4.965787e-17, No Iterations 1
DILUPBiCGStab:  Solving for ILambda_3_0, Initial residual = 0.03910141, Final residual = 4.09446e-17, No Iterations 1
DILUPBiCGStab:  Solving for ILambda_4_0, Initial residual = 0.04665307, Final residual = 0.002568799, No Iterations 3
DILUPBiCGStab:  Solving for ILambda_5_0, Initial residual = 0.06301776, Final residual = 0.002702082, No Iterations 6
DILUPBiCGStab:  Solving for ILambda_6_0, Initial residual = 0.06261069, Final residual = 0.00546484, No Iterations 6
DILUPBiCGStab:  Solving for ILambda_7_0, Initial residual = 0.04549086, Final residual = 0.002582841, No Iterations 11
DILUPBiCGStab:  Solving for ILambda_8_0, Initial residual = 0.01285718, Final residual = 1.937102e-17, No Iterations 1
DILUPBiCGStab:  Solving for ILambda_9_0, Initial residual = 0.01786739, Final residual = 2.796996e-17, No Iterations 1
DILUPBiCGStab:  Solving for ILambda_10_0, Initial residual = 0.02246378, Final residual = 4.557381e-17, No Iterations 1
DILUPBiCGStab:  Solving for ILambda_11_0, Initial residual = 0.02343176, Final residual = 7.085306e-17, No Iterations 1
DILUPBiCGStab:  Solving for ILambda_12_0, Initial residual = 0.02994301, Final residual = 0.0003133465, No Iterations 5
DILUPBiCGStab:  Solving for ILambda_13_0, Initial residual = 0.03938885, Final residual = 0.00300216, No Iterations 8
DILUPBiCGStab:  Solving for ILambda_14_0, Initial residual = 0.05464631, Final residual = 0.004555947, No Iterations 10
DILUPBiCGStab:  Solving for ILambda_15_0, Initial residual = 0.05581219, Final residual = 0.004794718, No Iterations 13
Radiation solver iter: 3
DILUPBiCGStab:  Solving for ILambda_0_0, Initial residual = 0.03144937, Final residual = 4.936547e-17, No Iterations 1
DILUPBiCGStab:  Solving for ILambda_1_0, Initial residual = 0.03361181, Final residual = 3.794238e-17, No Iterations 1
DILUPBiCGStab:  Solving for ILambda_2_0, Initial residual = 0.03009012, Final residual = 2.525516e-17, No Iterations 1
DILUPBiCGStab:  Solving for ILambda_3_0, Initial residual = 0.01605489, Final residual = 1.389478e-17, No Iterations 1
DILUPBiCGStab:  Solving for ILambda_4_0, Initial residual = 0.01747621, Final residual = 0.0003935402, No Iterations 3
DILUPBiCGStab:  Solving for ILambda_5_0, Initial residual = 0.03677358, Final residual = 0.000758561, No Iterations 6
DILUPBiCGStab:  Solving for ILambda_6_0, Initial residual = 0.04291283, Final residual = 0.002461013, No Iterations 5
DILUPBiCGStab:  Solving for ILambda_7_0, Initial residual = 0.03579966, Final residual = 0.00338599, No Iterations 6
DILUPBiCGStab:  Solving for ILambda_8_0, Initial residual = 0.01073217, Final residual = 1.250836e-17, No Iterations 1
DILUPBiCGStab:  Solving for ILambda_9_0, Initial residual = 0.01474439, Final residual = 2.12188e-17, No Iterations 1
DILUPBiCGStab:  Solving for ILambda_10_0, Initial residual = 0.01730956, Final residual = 3.243527e-17, No Iterations 1
DILUPBiCGStab:  Solving for ILambda_11_0, Initial residual = 0.01564707, Final residual = 4.471375e-17, No Iterations 1
DILUPBiCGStab:  Solving for ILambda_12_0, Initial residual = 0.01931588, Final residual = 0.001523573, No Iterations 4
DILUPBiCGStab:  Solving for ILambda_13_0, Initial residual = 0.03016851, Final residual = 0.001280762, No Iterations 9
DILUPBiCGStab:  Solving for ILambda_14_0, Initial residual = 0.03741203, Final residual = 0.003087457, No Iterations 11
DILUPBiCGStab:  Solving for ILambda_15_0, Initial residual = 0.04188562, Final residual = 0.003991744, No Iterations 10
Radiation solver iter: 4
DILUPBiCGStab:  Solving for ILambda_0_0, Initial residual = 0.02627055, Final residual = 3.71535e-17, No Iterations 1
DILUPBiCGStab:  Solving for ILambda_1_0, Initial residual = 0.02492656, Final residual = 2.292234e-17, No Iterations 1
DILUPBiCGStab:  Solving for ILambda_2_0, Initial residual = 0.01941001, Final residual = 1.811557e-17, No Iterations 1
DILUPBiCGStab:  Solving for ILambda_3_0, Initial residual = 0.006864498, Final residual = 4.990966e-18, No Iterations 1
DILUPBiCGStab:  Solving for ILambda_4_0, Initial residual = 0.006632675, Final residual = 0.0004927258, No Iterations 2
DILUPBiCGStab:  Solving for ILambda_5_0, Initial residual = 0.02310154, Final residual = 0.001951002, No Iterations 3
DILUPBiCGStab:  Solving for ILambda_6_0, Initial residual = 0.03212899, Final residual = 0.002736075, No Iterations 3
DILUPBiCGStab:  Solving for ILambda_7_0, Initial residual = 0.03066444, Final residual = 0.003050791, No Iterations 4
DILUPBiCGStab:  Solving for ILambda_8_0, Initial residual = 0.009159247, Final residual = 9.936967e-18, No Iterations 1
DILUPBiCGStab:  Solving for ILambda_9_0, Initial residual = 0.01222018, Final residual = 1.578386e-17, No Iterations 1
DILUPBiCGStab:  Solving for ILambda_10_0, Initial residual = 0.01281053, Final residual = 2.236618e-17, No Iterations 1
DILUPBiCGStab:  Solving for ILambda_11_0, Initial residual = 0.009827126, Final residual = 2.691464e-17, No Iterations 1
DILUPBiCGStab:  Solving for ILambda_12_0, Initial residual = 0.01229708, Final residual = 0.0004925806, No Iterations 4
DILUPBiCGStab:  Solving for ILambda_13_0, Initial residual = 0.02128143, Final residual = 0.002103373, No Iterations 6
DILUPBiCGStab:  Solving for ILambda_14_0, Initial residual = 0.02955617, Final residual = 0.002749695, No Iterations 10
DILUPBiCGStab:  Solving for ILambda_15_0, Initial residual = 0.03529792, Final residual = 0.003108253, No Iterations 8
Radiation solver iter: 5
DILUPBiCGStab:  Solving for ILambda_0_0, Initial residual = 0.02230741, Final residual = 2.644844e-17, No Iterations 1
DILUPBiCGStab:  Solving for ILambda_1_0, Initial residual = 0.01922292, Final residual = 1.482005e-17, No Iterations 1
DILUPBiCGStab:  Solving for ILambda_2_0, Initial residual = 0.01305183, Final residual = 8.735625e-18, No Iterations 1
DILUPBiCGStab:  Solving for ILambda_3_0, Initial residual = 0.002673658, Final residual = 1.973397e-18, No Iterations 1
DILUPBiCGStab:  Solving for ILambda_4_0, Initial residual = 0.0025102, Final residual = 0.0002137716, No Iterations 2
DILUPBiCGStab:  Solving for ILambda_5_0, Initial residual = 0.01527506, Final residual = 0.001034742, No Iterations 4
DILUPBiCGStab:  Solving for ILambda_6_0, Initial residual = 0.02544442, Final residual = 0.002345056, No Iterations 3
DILUPBiCGStab:  Solving for ILambda_7_0, Initial residual = 0.02669736, Final residual = 0.001737027, No Iterations 5
DILUPBiCGStab:  Solving for ILambda_8_0, Initial residual = 0.007972345, Final residual = 7.474869e-18, No Iterations 1
DILUPBiCGStab:  Solving for ILambda_9_0, Initial residual = 0.01014751, Final residual = 1.303554e-17, No Iterations 1
DILUPBiCGStab:  Solving for ILambda_10_0, Initial residual = 0.009405583, Final residual = 1.577353e-17, No Iterations 1
DILUPBiCGStab:  Solving for ILambda_11_0, Initial residual = 0.006614024, Final residual = 1.915909e-17, No Iterations 1
DILUPBiCGStab:  Solving for ILambda_12_0, Initial residual = 0.007843756, Final residual = 0.0004676186, No Iterations 4
DILUPBiCGStab:  Solving for ILambda_13_0, Initial residual = 0.01542424, Final residual = 0.0004866553, No Iterations 9
DILUPBiCGStab:  Solving for ILambda_14_0, Initial residual = 0.02373391, Final residual = 0.002136735, No Iterations 7
DILUPBiCGStab:  Solving for ILambda_15_0, Initial residual = 0.03029119, Final residual = 0.002262298, No Iterations 6
Radiation solver iter: 6
DILUPBiCGStab:  Solving for ILambda_0_0, Initial residual = 0.01921778, Final residual = 2.12903e-17, No Iterations 1
DILUPBiCGStab:  Solving for ILambda_1_0, Initial residual = 0.01503132, Final residual = 1.063456e-17, No Iterations 1
DILUPBiCGStab:  Solving for ILambda_2_0, Initial residual = 0.008830658, Final residual = 5.331882e-18, No Iterations 1
DILUPBiCGStab:  Solving for ILambda_3_0, Initial residual = 0.001036109, Final residual = 8.892384e-19, No Iterations 1
DILUPBiCGStab:  Solving for ILambda_4_0, Initial residual = 0.0009989863, Final residual = 7.5376e-05, No Iterations 2
DILUPBiCGStab:  Solving for ILambda_5_0, Initial residual = 0.009978748, Final residual = 0.0002924084, No Iterations 4
DILUPBiCGStab:  Solving for ILambda_6_0, Initial residual = 0.02054194, Final residual = 0.001719924, No Iterations 3
DILUPBiCGStab:  Solving for ILambda_7_0, Initial residual = 0.02310528, Final residual = 0.001941898, No Iterations 4
DILUPBiCGStab:  Solving for ILambda_8_0, Initial residual = 0.006933285, Final residual = 6.133402e-18, No Iterations 1
DILUPBiCGStab:  Solving for ILambda_9_0, Initial residual = 0.008324661, Final residual = 9.71415e-18, No Iterations 1
DILUPBiCGStab:  Solving for ILambda_10_0, Initial residual = 0.007082049, Final residual = 1.077464e-17, No Iterations 1
DILUPBiCGStab:  Solving for ILambda_11_0, Initial residual = 0.004897269, Final residual = 1.397502e-17, No Iterations 1
DILUPBiCGStab:  Solving for ILambda_12_0, Initial residual = 0.005823394, Final residual = 0.000403899, No Iterations 4
DILUPBiCGStab:  Solving for ILambda_13_0, Initial residual = 0.01095724, Final residual = 0.000824161, No Iterations 7
DILUPBiCGStab:  Solving for ILambda_14_0, Initial residual = 0.01888526, Final residual = 0.001389486, No Iterations 7
DILUPBiCGStab:  Solving for ILambda_15_0, Initial residual = 0.02593248, Final residual = 0.002307163, No Iterations 5
Radiation solver iter: 7
DILUPBiCGStab:  Solving for ILambda_0_0, Initial residual = 0.01667373, Final residual = 1.675799e-17, No Iterations 1
DILUPBiCGStab:  Solving for ILambda_1_0, Initial residual = 0.01182148, Final residual = 8.115392e-18, No Iterations 1
DILUPBiCGStab:  Solving for ILambda_2_0, Initial residual = 0.005864789, Final residual = 3.322002e-18, No Iterations 1
DILUPBiCGStab:  Solving for ILambda_3_0, Initial residual = 0.0004085572, Final residual = 4.932989e-19, No Iterations 1
DILUPBiCGStab:  Solving for ILambda_5_0, Initial residual = 0.006314005, Final residual = 0.000323011, No Iterations 3
DILUPBiCGStab:  Solving for ILambda_6_0, Initial residual = 0.01627478, Final residual = 0.00145039, No Iterations 3
DILUPBiCGStab:  Solving for ILambda_7_0, Initial residual = 0.02034023, Final residual = 0.001716077, No Iterations 4
DILUPBiCGStab:  Solving for ILambda_8_0, Initial residual = 0.005996508, Final residual = 5.250782e-18, No Iterations 1
DILUPBiCGStab:  Solving for ILambda_9_0, Initial residual = 0.006811406, Final residual = 7.533113e-18, No Iterations 1
DILUPBiCGStab:  Solving for ILambda_10_0, Initial residual = 0.00566061, Final residual = 8.317937e-18, No Iterations 1
DILUPBiCGStab:  Solving for ILambda_11_0, Initial residual = 0.003966489, Final residual = 1.114838e-17, No Iterations 1
DILUPBiCGStab:  Solving for ILambda_12_0, Initial residual = 0.004727928, Final residual = 0.0002954049, No Iterations 4
DILUPBiCGStab:  Solving for ILambda_13_0, Initial residual = 0.008898947, Final residual = 0.0006006126, No Iterations 8
DILUPBiCGStab:  Solving for ILambda_14_0, Initial residual = 0.01492922, Final residual = 0.001337854, No Iterations 8
DILUPBiCGStab:  Solving for ILambda_15_0, Initial residual = 0.02233129, Final residual = 0.001812159, No Iterations 5
Radiation solver iter: 8
[...]
limitTemperature limitT Lower limited 0 (0%) of cells, with min limit 280
limitTemperature limitT Upper limited 0 (0%) of cells, with max limit 1200
limitTemperature limitT Unlimited Tmin 416.7672
limitTemperature limitT Unlimited Tmax 507.9393
GAMG:  Solving for p_rgh, Initial residual = 0.0003016233, Final residual = 1.745838e-06, No Iterations 2
limitVelocity limitU Limited 0 (0%) of cells, with max limit 5
time step continuity errors : sum local = 9.210777e-06, global = 1.373558e-17, cumulative = 1.926819e-15
rho min/max : 0.5794494 0.9554911
DILUPBiCGStab:  Solving for omega, Initial residual = 7.960273e-05, Final residual = 2.908906e-06, No Iterations 1
DILUPBiCGStab:  Solving for k, Initial residual = 0.0003350954, Final residual = 7.221327e-06, No Iterations 1
ExecutionTime = 13.26 s  ClockTime = 13 s

Time = 3840

DILUPBiCGStab:  Solving for h, Initial residual = 0.0001894865, Final residual = 4.5908e-08, No Iterations 1
limitTemperature limitT Lower limited 0 (0%) of cells, with min limit 280
limitTemperature limitT Upper limited 0 (0%) of cells, with max limit 1200
limitTemperature limitT Unlimited Tmin 416.7693
limitTemperature limitT Unlimited Tmax 507.9445
Radiation solver iter: 0
DILUPBiCGStab:  Solving for ILambda_0_0, Initial residual = 0.000163465, Final residual = 1.494014e-19, No Iterations 1
DILUPBiCGStab:  Solving for ILambda_1_0, Initial residual = 0.0003662937, Final residual = 2.827131e-19, No Iterations 1
DILUPBiCGStab:  Solving for ILambda_2_0, Initial residual = 0.000699686, Final residual = 5.819922e-19, No Iterations 1
DILUPBiCGStab:  Solving for ILambda_3_0, Initial residual = 0.001032968, Final residual = 1.621066e-18, No Iterations 1
DILUPBiCGStab:  Solving for ILambda_4_0, Initial residual = 0.001291183, Final residual = 0.000104149, No Iterations 4
DILUPBiCGStab:  Solving for ILambda_5_0, Initial residual = 0.001051671, Final residual = 8.799218e-05, No Iterations 7
DILUPBiCGStab:  Solving for ILambda_6_0, Initial residual = 0.0007943415, Final residual = 8.530539e-05, No Iterations 13
DILUPBiCGStab:  Solving for ILambda_7_0, Initial residual = 0.0004845804, Final residual = 8.405688e-05, No Iterations 15
DILUPBiCGStab:  Solving for ILambda_8_0, Initial residual = 0.0004260146, Final residual = 1.445832e-18, No Iterations 1
DILUPBiCGStab:  Solving for ILambda_9_0, Initial residual = 0.0003740725, Final residual = 9.82248e-19, No Iterations 1
DILUPBiCGStab:  Solving for ILambda_10_0, Initial residual = 0.0003867676, Final residual = 1.072602e-18, No Iterations 1
DILUPBiCGStab:  Solving for ILambda_11_0, Initial residual = 0.0003571043, Final residual = 1.13675e-18, No Iterations 1
DILUPBiCGStab:  Solving for ILambda_12_0, Initial residual = 0.0003891311, Final residual = 7.800016e-05, No Iterations 3
DILUPBiCGStab:  Solving for ILambda_13_0, Initial residual = 0.0004825707, Final residual = 9.35479e-05, No Iterations 6
DILUPBiCGStab:  Solving for ILambda_14_0, Initial residual = 0.0005747477, Final residual = 9.479843e-05, No Iterations 9
DILUPBiCGStab:  Solving for ILambda_15_0, Initial residual = 0.0009100663, Final residual = 9.85055e-05, No Iterations 11
Radiation solver iter: 1
DILUPBiCGStab:  Solving for ILambda_3_0, Initial residual = 0.0004405639, Final residual = 4.815591e-19, No Iterations 1
DILUPBiCGStab:  Solving for ILambda_4_0, Initial residual = 0.0006715743, Final residual = 9.988209e-05, No Iterations 2
DILUPBiCGStab:  Solving for ILambda_5_0, Initial residual = 0.0007578744, Final residual = 9.297812e-05, No Iterations 5
GAMG:  Solving for p_rgh, Initial residual = 0.0002919321, Final residual = 1.731401e-06, No Iterations 2
limitVelocity limitU Limited 0 (0%) of cells, with max limit 5
time step continuity errors : sum local = 9.124719e-06, global = 1.276987e-17, cumulative = 1.939589e-15
rho min/max : 0.5793978 0.9554931
DILUPBiCGStab:  Solving for omega, Initial residual = 7.844223e-05, Final residual = 2.934918e-06, No Iterations 1
DILUPBiCGStab:  Solving for k, Initial residual = 0.0003345772, Final residual = 6.939259e-06, No Iterations 1
ExecutionTime = 13.32 s  ClockTime = 13 s

Time = 3841

DILUPBiCGStab:  Solving for h, Initial residual = 0.0001893951, Final residual = 4.59133e-08, No Iterations 1
limitTemperature limitT Lower limited 0 (0%) of cells, with min limit 280
limitTemperature limitT Upper limited 0 (0%) of cells, with max limit 1200
limitTemperature limitT Unlimited Tmin 416.7712
limitTemperature limitT Unlimited Tmax 507.9499
GAMG:  Solving for p_rgh, Initial residual = 0.0002938368, Final residual = 1.717888e-06, No Iterations 2
limitVelocity limitU Limited 0 (0%) of cells, with max limit 5
time step continuity errors : sum local = 9.071522e-06, global = 3.155583e-17, cumulative = 1.971145e-15
rho min/max : 0.5792863 0.9554951
DILUPBiCGStab:  Solving for omega, Initial residual = 7.719253e-05, Final residual = 2.870819e-06, No Iterations 1
DILUPBiCGStab:  Solving for k, Initial residual = 0.0003361369, Final residual = 7.784923e-06, No Iterations 1
ExecutionTime = 13.33 s  ClockTime = 13 s

Time = 3842

DILUPBiCGStab:  Solving for h, Initial residual = 0.0001893022, Final residual = 4.590358e-08, No Iterations 1
limitTemperature limitT Lower limited 0 (0%) of cells, with min limit 280
limitTemperature limitT Upper limited 0 (0%) of cells, with max limit 1200
limitTemperature limitT Unlimited Tmin 416.7729
limitTemperature limitT Unlimited Tmax 507.9561
GAMG:  Solving for p_rgh, Initial residual = 0.0002960235, Final residual = 1.692215e-06, No Iterations 2
limitVelocity limitU Limited 0 (0%) of cells, with max limit 5
time step continuity errors : sum local = 8.962202e-06, global = 2.100174e-17, cumulative = 1.992147e-15
rho min/max : 0.579181 0.9554971
DILUPBiCGStab:  Solving for omega, Initial residual = 8.158561e-05, Final residual = 2.909234e-06, No Iterations 1
DILUPBiCGStab:  Solving for k, Initial residual = 0.0003344079, Final residual = 7.301855e-06, No Iterations 1
ExecutionTime = 13.34 s  ClockTime = 13 s

Time = 3843

DILUPBiCGStab:  Solving for h, Initial residual = 0.0001891882, Final residual = 4.591674e-08, No Iterations 1
limitTemperature limitT Lower limited 0 (0%) of cells, with min limit 280
limitTemperature limitT Upper limited 0 (0%) of cells, with max limit 1200
limitTemperature limitT Unlimited Tmin 416.7744
limitTemperature limitT Unlimited Tmax 507.9627
Radiation solver iter: 0
DILUPBiCGStab:  Solving for ILambda_0_0, Initial residual = 0.0001988148, Final residual = 1.20636e-19, No Iterations 1
DILUPBiCGStab:  Solving for ILambda_1_0, Initial residual = 0.0004307587, Final residual = 2.238148e-19, No Iterations 1
DILUPBiCGStab:  Solving for ILambda_2_0, Initial residual = 0.0007221798, Final residual = 6.151981e-19, No Iterations 1
DILUPBiCGStab:  Solving for ILambda_3_0, Initial residual = 0.0009376095, Final residual = 2.043025e-18, No Iterations 1
DILUPBiCGStab:  Solving for ILambda_4_0, Initial residual = 0.001140469, Final residual = 0.0001039123, No Iterations 4
DILUPBiCGStab:  Solving for ILambda_5_0, Initial residual = 0.0009822456, Final residual = 3.555231e-05, No Iterations 9
DILUPBiCGStab:  Solving for ILambda_6_0, Initial residual = 0.0007946452, Final residual = 9.828289e-05, No Iterations 13
DILUPBiCGStab:  Solving for ILambda_7_0, Initial residual = 0.0004932848, Final residual = 3.871908e-05, No Iterations 22
DILUPBiCGStab:  Solving for ILambda_8_0, Initial residual = 0.0004601986, Final residual = 1.596045e-18, No Iterations 1
DILUPBiCGStab:  Solving for ILambda_9_0, Initial residual = 0.0004084963, Final residual = 1.200396e-18, No Iterations 1
DILUPBiCGStab:  Solving for ILambda_10_0, Initial residual = 0.0004423083, Final residual = 1.283363e-18, No Iterations 1
DILUPBiCGStab:  Solving for ILambda_11_0, Initial residual = 0.0004285569, Final residual = 1.422201e-18, No Iterations 1
DILUPBiCGStab:  Solving for ILambda_12_0, Initial residual = 0.0005115951, Final residual = 1.292913e-05, No Iterations 4
DILUPBiCGStab:  Solving for ILambda_13_0, Initial residual = 0.0005682944, Final residual = 8.386985e-05, No Iterations 6
DILUPBiCGStab:  Solving for ILambda_14_0, Initial residual = 0.0006397212, Final residual = 8.325921e-05, No Iterations 9
DILUPBiCGStab:  Solving for ILambda_15_0, Initial residual = 0.0009549581, Final residual = 9.899475e-05, No Iterations 9
Radiation solver iter: 1
DILUPBiCGStab:  Solving for ILambda_4_0, Initial residual = 0.0007916121, Final residual = 8.968227e-05, No Iterations 3
GAMG:  Solving for p_rgh, Initial residual = 0.0002940397, Final residual = 1.688381e-06, No Iterations 2
limitVelocity limitU Limited 0 (0%) of cells, with max limit 5
time step continuity errors : sum local = 8.938786e-06, global = 4.030746e-17, cumulative = 2.032454e-15
rho min/max : 0.5790811 0.9554991
DILUPBiCGStab:  Solving for omega, Initial residual = 7.991114e-05, Final residual = 3.079811e-06, No Iterations 1
DILUPBiCGStab:  Solving for k, Initial residual = 0.0003339354, Final residual = 7.192104e-06, No Iterations 1
ExecutionTime = 13.41 s  ClockTime = 13 s

Time = 3844

DILUPBiCGStab:  Solving for h, Initial residual = 0.0001890834, Final residual = 4.59023e-08, No Iterations 1
limitTemperature limitT Lower limited 0 (0%) of cells, with min limit 280
limitTemperature limitT Upper limited 0 (0%) of cells, with max limit 1200
limitTemperature limitT Unlimited Tmin 416.7758
limitTemperature limitT Unlimited Tmax 507.97
GAMG:  Solving for p_rgh, Initial residual = 0.0002901988, Final residual = 1.73981e-06, No Iterations 2
limitVelocity limitU Limited 0 (0%) of cells, with max limit 5
time step continuity errors : sum local = 9.18427e-06, global = -8.20288e-17, cumulative = 1.950425e-15
rho min/max : 0.5790582 0.9555012
DILUPBiCGStab:  Solving for omega, Initial residual = 7.845956e-05, Final residual = 2.886496e-06, No Iterations 1
DILUPBiCGStab:  Solving for k, Initial residual = 0.0003329808, Final residual = 6.818031e-06, No Iterations 1
ExecutionTime = 13.42 s  ClockTime = 13 s

Time = 3845

DILUPBiCGStab:  Solving for h, Initial residual = 0.0001889308, Final residual = 4.586697e-08, No Iterations 1
limitTemperature limitT Lower limited 0 (0%) of cells, with min limit 280
limitTemperature limitT Upper limited 0 (0%) of cells, with max limit 1200
limitTemperature limitT Unlimited Tmin 416.7771
limitTemperature limitT Unlimited Tmax 507.9772
GAMG:  Solving for p_rgh, Initial residual = 0.0002869031, Final residual = 1.818842e-06, No Iterations 2
limitVelocity limitU Limited 0 (0%) of cells, with max limit 5
time step continuity errors : sum local = 9.538506e-06, global = 6.907207e-18, cumulative = 1.957332e-15
rho min/max : 0.5790361 0.9555033
DILUPBiCGStab:  Solving for omega, Initial residual = 7.540896e-05, Final residual = 2.703847e-06, No Iterations 1
DILUPBiCGStab:  Solving for k, Initial residual = 0.0003333159, Final residual = 7.106415e-06, No Iterations 1
ExecutionTime = 13.43 s  ClockTime = 13 s

Time = 3846

DILUPBiCGStab:  Solving for h, Initial residual = 0.0001887874, Final residual = 4.579605e-08, No Iterations 1
limitTemperature limitT Lower limited 0 (0%) of cells, with min limit 280
limitTemperature limitT Upper limited 0 (0%) of cells, with max limit 1200
limitTemperature limitT Unlimited Tmin 416.7782
limitTemperature limitT Unlimited Tmax 507.9846
Radiation solver iter: 0
DILUPBiCGStab:  Solving for ILambda_0_0, Initial residual = 0.0001572971, Final residual = 1.009721e-19, No Iterations 1
DILUPBiCGStab:  Solving for ILambda_1_0, Initial residual = 0.0002968374, Final residual = 1.841995e-19, No Iterations 1
DILUPBiCGStab:  Solving for ILambda_2_0, Initial residual = 0.0004833912, Final residual = 3.371044e-19, No Iterations 1
DILUPBiCGStab:  Solving for ILambda_3_0, Initial residual = 0.0006338485, Final residual = 7.941929e-19, No Iterations 1
DILUPBiCGStab:  Solving for ILambda_4_0, Initial residual = 0.0006306876, Final residual = 5.004961e-05, No Iterations 3
DILUPBiCGStab:  Solving for ILambda_5_0, Initial residual = 0.000882744, Final residual = 9.217156e-05, No Iterations 5
DILUPBiCGStab:  Solving for ILambda_6_0, Initial residual = 0.0006832239, Final residual = 3.934212e-05, No Iterations 11
DILUPBiCGStab:  Solving for ILambda_7_0, Initial residual = 0.0004386327, Final residual = 9.977233e-05, No Iterations 8
DILUPBiCGStab:  Solving for ILambda_8_0, Initial residual = 0.0004085479, Final residual = 1.222099e-18, No Iterations 1
DILUPBiCGStab:  Solving for ILambda_9_0, Initial residual = 0.0003443317, Final residual = 7.34076e-19, No Iterations 1
DILUPBiCGStab:  Solving for ILambda_10_0, Initial residual = 0.0003283101, Final residual = 6.654679e-19, No Iterations 1
DILUPBiCGStab:  Solving for ILambda_11_0, Initial residual = 0.0002724104, Final residual = 7.837403e-19, No Iterations 1
DILUPBiCGStab:  Solving for ILambda_12_0, Initial residual = 0.0002724749, Final residual = 4.78716e-05, No Iterations 3
DILUPBiCGStab:  Solving for ILambda_13_0, Initial residual = 0.0004051608, Final residual = 9.11885e-05, No Iterations 5
DILUPBiCGStab:  Solving for ILambda_14_0, Initial residual = 0.0005191963, Final residual = 8.005009e-05, No Iterations 6
DILUPBiCGStab:  Solving for ILambda_15_0, Initial residual = 0.0008848589, Final residual = 8.504541e-05, No Iterations 14
GAMG:  Solving for p_rgh, Initial residual = 0.0002834623, Final residual = 1.870938e-06, No Iterations 2
limitVelocity limitU Limited 0 (0%) of cells, with max limit 5
time step continuity errors : sum local = 9.739343e-06, global = 1.1045e-17, cumulative = 1.968377e-15
rho min/max : 0.5790152 0.9555055
DILUPBiCGStab:  Solving for omega, Initial residual = 8.116874e-05, Final residual = 2.901697e-06, No Iterations 1
DILUPBiCGStab:  Solving for k, Initial residual = 0.0003337271, Final residual = 7.208561e-06, No Iterations 1
ExecutionTime = 13.48 s  ClockTime = 13 s

Time = 3847

DILUPBiCGStab:  Solving for h, Initial residual = 0.0001886867, Final residual = 4.577887e-08, No Iterations 1
limitTemperature limitT Lower limited 0 (0%) of cells, with min limit 280
limitTemperature limitT Upper limited 0 (0%) of cells, with max limit 1200
limitTemperature limitT Unlimited Tmin 416.7791
limitTemperature limitT Unlimited Tmax 507.9919
GAMG:  Solving for p_rgh, Initial residual = 0.0002864795, Final residual = 1.935362e-06, No Iterations 2
limitVelocity limitU Limited 0 (0%) of cells, with max limit 5
time step continuity errors : sum local = 9.976264e-06, global = 6.38686e-17, cumulative = 2.032246e-15
rho min/max : 0.5791307 0.9555076
DILUPBiCGStab:  Solving for omega, Initial residual = 8.394437e-05, Final residual = 3.244193e-06, No Iterations 1
DILUPBiCGStab:  Solving for k, Initial residual = 0.0003339785, Final residual = 7.353351e-06, No Iterations 1
ExecutionTime = 13.5 s  ClockTime = 13 s

Time = 3848

DILUPBiCGStab:  Solving for h, Initial residual = 0.0001886295, Final residual = 4.578761e-08, No Iterations 1
limitTemperature limitT Lower limited 0 (0%) of cells, with min limit 280
limitTemperature limitT Upper limited 0 (0%) of cells, with max limit 1200
limitTemperature limitT Unlimited Tmin 416.7802
limitTemperature limitT Unlimited Tmax 507.9987
GAMG:  Solving for p_rgh, Initial residual = 0.0002829764, Final residual = 1.952206e-06, No Iterations 2
limitVelocity limitU Limited 0 (0%) of cells, with max limit 5
time step continuity errors : sum local = 9.976832e-06, global = 3.141583e-17, cumulative = 2.063662e-15
rho min/max : 0.5792398 0.9555098
DILUPBiCGStab:  Solving for omega, Initial residual = 7.791937e-05, Final residual = 2.757069e-06, No Iterations 1
DILUPBiCGStab:  Solving for k, Initial residual = 0.0003328231, Final residual = 7.088963e-06, No Iterations 1
ExecutionTime = 13.51 s  ClockTime = 13 s

Time = 3849

DILUPBiCGStab:  Solving for h, Initial residual = 0.0001885043, Final residual = 4.57715e-08, No Iterations 1
limitTemperature limitT Lower limited 0 (0%) of cells, with min limit 280
limitTemperature limitT Upper limited 0 (0%) of cells, with max limit 1200
limitTemperature limitT Unlimited Tmin 416.7811
limitTemperature limitT Unlimited Tmax 508.0048
Radiation solver iter: 0
DILUPBiCGStab:  Solving for ILambda_0_0, Initial residual = 0.0002016181, Final residual = 1.525783e-19, No Iterations 1
DILUPBiCGStab:  Solving for ILambda_1_0, Initial residual = 0.0004720659, Final residual = 3.554032e-19, No Iterations 1
DILUPBiCGStab:  Solving for ILambda_2_0, Initial residual = 0.0008323507, Final residual = 7.830565e-19, No Iterations 1
DILUPBiCGStab:  Solving for ILambda_3_0, Initial residual = 0.001314848, Final residual = 2.678366e-18, No Iterations 1
DILUPBiCGStab:  Solving for ILambda_4_0, Initial residual = 0.001419098, Final residual = 0.0001007865, No Iterations 4
DILUPBiCGStab:  Solving for ILambda_5_0, Initial residual = 0.001385125, Final residual = 7.929116e-05, No Iterations 9
DILUPBiCGStab:  Solving for ILambda_6_0, Initial residual = 0.000858898, Final residual = 5.483129e-05, No Iterations 13
DILUPBiCGStab:  Solving for ILambda_7_0, Initial residual = 0.0005044578, Final residual = 9.487737e-05, No Iterations 18
DILUPBiCGStab:  Solving for ILambda_8_0, Initial residual = 0.0003646704, Final residual = 8.396554e-19, No Iterations 1
DILUPBiCGStab:  Solving for ILambda_9_0, Initial residual = 0.000314375, Final residual = 6.182839e-19, No Iterations 1
DILUPBiCGStab:  Solving for ILambda_10_0, Initial residual = 0.0003265788, Final residual = 7.170056e-19, No Iterations 1
DILUPBiCGStab:  Solving for ILambda_11_0, Initial residual = 0.0003003229, Final residual = 8.786558e-19, No Iterations 1
DILUPBiCGStab:  Solving for ILambda_12_0, Initial residual = 0.000341576, Final residual = 1.168698e-05, No Iterations 4
DILUPBiCGStab:  Solving for ILambda_13_0, Initial residual = 0.0004589228, Final residual = 8.488309e-05, No Iterations 5
DILUPBiCGStab:  Solving for ILambda_14_0, Initial residual = 0.0005415044, Final residual = 2.676586e-05, No Iterations 10
DILUPBiCGStab:  Solving for ILambda_15_0, Initial residual = 0.0009083932, Final residual = 9.602011e-05, No Iterations 9
Radiation solver iter: 1
DILUPBiCGStab:  Solving for ILambda_3_0, Initial residual = 0.0007028762, Final residual = 7.813018e-19, No Iterations 1
DILUPBiCGStab:  Solving for ILambda_4_0, Initial residual = 0.0009692425, Final residual = 3.404629e-05, No Iterations 4
DILUPBiCGStab:  Solving for ILambda_5_0, Initial residual = 0.000961418, Final residual = 8.779488e-05, No Iterations 6
GAMG:  Solving for p_rgh, Initial residual = 0.0002832612, Final residual = 1.977557e-06, No Iterations 2
limitVelocity limitU Limited 0 (0%) of cells, with max limit 5
time step continuity errors : sum local = 9.980113e-06, global = 2.150405e-17, cumulative = 2.085166e-15
rho min/max : 0.5793424 0.955512
DILUPBiCGStab:  Solving for omega, Initial residual = 7.390008e-05, Final residual = 2.378195e-06, No Iterations 1
DILUPBiCGStab:  Solving for k, Initial residual = 0.0003329159, Final residual = 7.403582e-06, No Iterations 1
ExecutionTime = 13.59 s  ClockTime = 13 s

Time = 3850

DILUPBiCGStab:  Solving for h, Initial residual = 0.000188367, Final residual = 4.573543e-08, No Iterations 1
limitTemperature limitT Lower limited 0 (0%) of cells, with min limit 280
limitTemperature limitT Upper limited 0 (0%) of cells, with max limit 1200
limitTemperature limitT Unlimited Tmin 416.782
limitTemperature limitT Unlimited Tmax 508.0106
GAMG:  Solving for p_rgh, Initial residual = 0.0002835141, Final residual = 1.965394e-06, No Iterations 2
limitVelocity limitU Limited 0 (0%) of cells, with max limit 5
time step continuity errors : sum local = 9.786259e-06, global = -7.413442e-17, cumulative = 2.011032e-15
rho min/max : 0.5793784 0.9555141
DILUPBiCGStab:  Solving for omega, Initial residual = 8.737992e-05, Final residual = 2.925295e-06, No Iterations 1
DILUPBiCGStab:  Solving for k, Initial residual = 0.0003325424, Final residual = 7.294492e-06, No Iterations 1
ExecutionTime = 13.6 s  ClockTime = 13 s

End

