/*---------------------------------------------------------------------------*\
| =========                 |                                                 |
| \\      /  F ield         | OpenFOAM: The Open Source CFD Toolbox           |
|  \\    /   O peration     | Version:  2312                                  |
|   \\  /    A nd           | Website:  www.openfoam.com                      |
|    \\/     M anipulation  |                                                 |
\*---------------------------------------------------------------------------*/
Build  : _c39a0f64-20231220 OPENFOAM=2312 version=2312
Arch   : "LSB;label=32;scalar=64"
Exec   : buoyantSimpleFoam
Date   : Jul 02 2026
Time   : 08:35:20
Host   : 7363b17030c3
PID    : 231
I/O    : uncollated
Case   : /case
nProcs : 1
trapFpe: Floating point exception trapping enabled (FOAM_SIGFPE).
fileModificationChecking : Monitoring run-time modified files using timeStampMaster (fileModificationSkew 5, maxFileModificationPolls 20)
allowSystemOperations : Allowing user-supplied system call operations

// * * * * * * * * * * * * * * * * * * * * * * * * * * * * * * * * * * * * * //
Create time

Create mesh for time = 1000


SIMPLE: convergence criteria
    field p_rgh	 tolerance 0.0001
    field U	 tolerance 0.0001
    field h	 tolerance 0.0001
    field "(k|omega)"	 tolerance 0.001

Reading thermophysical properties

Selecting thermodynamics package 
{
    type            heRhoThermo;
    mixture         pureMixture;
    transport       const;
    thermo          hConst;
    equationOfState perfectGas;
    specie          specie;
    energy          sensibleEnthalpy;
}

Reading field U

Reading/calculating face flux field phi

Creating turbulence model

Selecting turbulence model type RAS
Selecting RAS turbulence model kOmegaSST
Selecting patchDistMethod meshWave
RAS
{
    RASModel        kOmegaSST;
    turbulence      on;
    printCoeffs     on;
    alphaK1         0.85;
    alphaK2         1;
    alphaOmega1     0.5;
    alphaOmega2     0.856;
    gamma1          0.5555556;
    gamma2          0.44;
    beta1           0.075;
    beta2           0.0828;
    betaStar        0.09;
    a1              0.31;
    b1              1;
    c1              10;
    F3              false;
    decayControl    false;
    kInf            0;
    omegaInf        0;
}


Reading g

Reading hRef
Calculating field g.h

Reading field p_rgh

No MRF models present

Selecting radiationModel fvDOM
Selecting absorptionEmissionModel constantAbsorptionEmission
Selecting scatterModel none
Selecting sootModel none
fvDOM : Allocated 16 rays with average orientation:
	I0 : dAve : 	(0.1195698 0.6011177 2.944771e-33) : omega : 	0.7853982 : d : 	(0.1950903 0.9807853 6.123234e-17)
	I1 : dAve : 	(0.3405058 0.509603 2.944771e-33) : omega : 	0.7853982 : d : 	(0.5555702 0.8314696 6.123234e-17)
	I2 : dAve : 	(0.509603 0.3405058 2.944771e-33) : omega : 	0.7853982 : d : 	(0.8314696 0.5555702 6.123234e-17)
	I3 : dAve : 	(0.6011177 0.1195698 2.944771e-33) : omega : 	0.7853982 : d : 	(0.9807853 0.1950903 6.123234e-17)
	I4 : dAve : 	(0.6011177 -0.1195698 2.944771e-33) : omega : 	0.7853982 : d : 	(0.9807853 -0.1950903 6.123234e-17)
	I5 : dAve : 	(0.509603 -0.3405058 2.944771e-33) : omega : 	0.7853982 : d : 	(0.8314696 -0.5555702 6.123234e-17)
	I6 : dAve : 	(0.3405058 -0.509603 2.944771e-33) : omega : 	0.7853982 : d : 	(0.5555702 -0.8314696 6.123234e-17)
	I7 : dAve : 	(0.1195698 -0.6011177 2.944771e-33) : omega : 	0.7853982 : d : 	(0.1950903 -0.9807853 6.123234e-17)
	I8 : dAve : 	(-0.1195698 -0.6011177 2.944771e-33) : omega : 	0.7853982 : d : 	(-0.1950903 -0.9807853 6.123234e-17)
	I9 : dAve : 	(-0.3405058 -0.509603 2.944771e-33) : omega : 	0.7853982 : d : 	(-0.5555702 -0.8314696 6.123234e-17)
	I10 : dAve : 	(-0.509603 -0.3405058 2.944771e-33) : omega : 	0.7853982 : d : 	(-0.8314696 -0.5555702 6.123234e-17)
	I11 : dAve : 	(-0.6011177 -0.1195698 2.944771e-33) : omega : 	0.7853982 : d : 	(-0.9807853 -0.1950903 6.123234e-17)
	I12 : dAve : 	(-0.6011177 0.1195698 2.944771e-33) : omega : 	0.7853982 : d : 	(-0.9807853 0.1950903 6.123234e-17)
	I13 : dAve : 	(-0.509603 0.3405058 2.944771e-33) : omega : 	0.7853982 : d : 	(-0.8314696 0.5555702 6.123234e-17)
	I14 : dAve : 	(-0.3405058 0.509603 2.944771e-33) : omega : 	0.7853982 : d : 	(-0.5555702 0.8314696 6.123234e-17)
	I15 : dAve : 	(-0.1195698 0.6011177 2.944771e-33) : omega : 	0.7853982 : d : 	(-0.1950903 0.9807853 6.123234e-17)
Total omega : 12.56637

Creating finite volume options from "system/fvOptions"

Selecting finite volume options type limitTemperature
    Source: limitT
    - selecting all cells
    - selected 12000 cell(s) with volume 0.473422
Selecting finite volume options type limitVelocity
    Source: limitU
    - selecting all cells
    - selected 12000 cell(s) with volume 0.473422

Starting time loop

surfaceFieldValue wallT:
    operation     = areaAverage


surfaceFieldValue wallTriser:
    operation     = areaAverage


Time = 1001

DILUPBiCGStab:  Solving for h, Initial residual = 1, Final residual = 9.622866e-06, No Iterations 1
limitTemperature limitT Lower limited 0 (0%) of cells, with min limit 280
limitTemperature limitT Upper limited 0 (0%) of cells, with max limit 1200
limitTemperature limitT Unlimited Tmin 450
limitTemperature limitT Unlimited Tmax 450
Radiation solver iter: 0
Selecting boundary radiation Model: lookup
Selecting boundary radiation Model: lookup
Selecting boundary radiation Model: lookup
DILUPBiCGStab:  Solving for ILambda_0_0, Initial residual = 0.2521698, Final residual = 1.881398e-15, No Iterations 1
DILUPBiCGStab:  Solving for ILambda_1_0, Initial residual = 0.4288377, Final residual = 2.662814e-15, No Iterations 1
DILUPBiCGStab:  Solving for ILambda_2_0, Initial residual = 0.5971549, Final residual = 3.318261e-15, No Iterations 1
DILUPBiCGStab:  Solving for ILambda_3_0, Initial residual = 0.7989654, Final residual = 3.952585e-15, No Iterations 1
DILUPBiCGStab:  Solving for ILambda_4_0, Initial residual = 0.8250744, Final residual = 0.03723121, No Iterations 4
DILUPBiCGStab:  Solving for ILambda_5_0, Initial residual = 0.6507082, Final residual = 0.0378181, No Iterations 10
DILUPBiCGStab:  Solving for ILambda_6_0, Initial residual = 0.4976605, Final residual = 0.02460527, No Iterations 17
DILUPBiCGStab:  Solving for ILambda_7_0, Initial residual = 0.3417939, Final residual = 0.004373448, No Iterations 34
DILUPBiCGStab:  Solving for ILambda_8_0, Initial residual = 0.6112232, Final residual = 4.97593e-15, No Iterations 1
DILUPBiCGStab:  Solving for ILambda_9_0, Initial residual = 0.7356176, Final residual = 4.899949e-15, No Iterations 1
DILUPBiCGStab:  Solving for ILambda_10_0, Initial residual = 0.8129698, Final residual = 4.327556e-15, No Iterations 1
DILUPBiCGStab:  Solving for ILambda_11_0, Initial residual = 0.8729896, Final residual = 4.638464e-15, No Iterations 1
DILUPBiCGStab:  Solving for ILambda_12_0, Initial residual = 0.8872948, Final residual = 0.05450113, No Iterations 4
DILUPBiCGStab:  Solving for ILambda_13_0, Initial residual = 0.8514216, Final residual = 0.005940446, No Iterations 10
DILUPBiCGStab:  Solving for ILambda_14_0, Initial residual = 0.8031676, Final residual = 0.02253344, No Iterations 18
DILUPBiCGStab:  Solving for ILambda_15_0, Initial residual = 0.7422136, Final residual = 0.02418521, No Iterations 32
Radiation solver iter: 1
DILUPBiCGStab:  Solving for ILambda_0_0, Initial residual = 0.03488254, Final residual = 2.14692e-16, No Iterations 1
DILUPBiCGStab:  Solving for ILambda_1_0, Initial residual = 0.05776923, Final residual = 3.270435e-16, No Iterations 1
DILUPBiCGStab:  Solving for ILambda_2_0, Initial residual = 0.07444998, Final residual = 3.436704e-16, No Iterations 1
DILUPBiCGStab:  Solving for ILambda_3_0, Initial residual = 0.08886904, Final residual = 4.032555e-16, No Iterations 1
DILUPBiCGStab:  Solving for ILambda_4_0, Initial residual = 0.1315588, Final residual = 0.001565878, No Iterations 5
DILUPBiCGStab:  Solving for ILambda_5_0, Initial residual = 0.1227785, Final residual = 0.0009597386, No Iterations 9
DILUPBiCGStab:  Solving for ILambda_6_0, Initial residual = 0.09404665, Final residual = 0.00686399, No Iterations 12
DILUPBiCGStab:  Solving for ILambda_7_0, Initial residual = 0.04101191, Final residual = 0.003588336, No Iterations 20
DILUPBiCGStab:  Solving for ILambda_8_0, Initial residual = 0.06201107, Final residual = 3.295823e-16, No Iterations 1
DILUPBiCGStab:  Solving for ILambda_9_0, Initial residual = 0.07708676, Final residual = 3.643089e-16, No Iterations 1
DILUPBiCGStab:  Solving for ILambda_10_0, Initial residual = 0.09827083, Final residual = 4.481334e-16, No Iterations 1
DILUPBiCGStab:  Solving for ILambda_11_0, Initial residual = 0.1259838, Final residual = 5.536606e-16, No Iterations 1
DILUPBiCGStab:  Solving for ILambda_12_0, Initial residual = 0.297918, Final residual = 0.02068221, No Iterations 3
DILUPBiCGStab:  Solving for ILambda_13_0, Initial residual = 0.1304697, Final residual = 0.01243103, No Iterations 8
DILUPBiCGStab:  Solving for ILambda_14_0, Initial residual = 0.1341512, Final residual = 0.004029453, No Iterations 12
DILUPBiCGStab:  Solving for ILambda_15_0, Initial residual = 0.09715372, Final residual = 0.009098288, No Iterations 22
Radiation solver iter: 2
DILUPBiCGStab:  Solving for ILambda_0_0, Initial residual = 0.009917127, Final residual = 1.744506e-17, No Iterations 1
DILUPBiCGStab:  Solving for ILambda_1_0, Initial residual = 0.009509726, Final residual = 1.52582e-17, No Iterations 1
DILUPBiCGStab:  Solving for ILambda_2_0, Initial residual = 0.009233923, Final residual = 1.396745e-17, No Iterations 1
DILUPBiCGStab:  Solving for ILambda_3_0, Initial residual = 0.007185948, Final residual = 1.712097e-17, No Iterations 1
DILUPBiCGStab:  Solving for ILambda_4_0, Initial residual = 0.01533338, Final residual = 0.001152103, No Iterations 3
DILUPBiCGStab:  Solving for ILambda_5_0, Initial residual = 0.02419326, Final residual = 0.001916207, No Iterations 6
DILUPBiCGStab:  Solving for ILambda_6_0, Initial residual = 0.0288651, Final residual = 0.002241556, No Iterations 7
DILUPBiCGStab:  Solving for ILambda_7_0, Initial residual = 0.01848074, Final residual = 0.001845997, No Iterations 7
DILUPBiCGStab:  Solving for ILambda_8_0, Initial residual = 0.01754187, Final residual = 3.302453e-17, No Iterations 1
DILUPBiCGStab:  Solving for ILambda_9_0, Initial residual = 0.01482791, Final residual = 2.153291e-17, No Iterations 1
DILUPBiCGStab:  Solving for ILambda_10_0, Initial residual = 0.01412996, Final residual = 2.177776e-17, No Iterations 1
DILUPBiCGStab:  Solving for ILambda_11_0, Initial residual = 0.01100357, Final residual = 2.596738e-17, No Iterations 1
DILUPBiCGStab:  Solving for ILambda_12_0, Initial residual = 0.03934748, Final residual = 0.002800013, No Iterations 3
DILUPBiCGStab:  Solving for ILambda_13_0, Initial residual = 0.04175453, Final residual = 0.002389665, No Iterations 6
DILUPBiCGStab:  Solving for ILambda_14_0, Initial residual = 0.04231842, Final residual = 0.001469813, No Iterations 11
DILUPBiCGStab:  Solving for ILambda_15_0, Initial residual = 0.05043958, Final residual = 0.004595616, No Iterations 9
Radiation solver iter: 3
DILUPBiCGStab:  Solving for ILambda_0_0, Initial residual = 0.005580158, Final residual = 7.576857e-18, No Iterations 1
DILUPBiCGStab:  Solving for ILambda_1_0, Initial residual = 0.00443862, Final residual = 3.381824e-18, No Iterations 1
DILUPBiCGStab:  Solving for ILambda_2_0, Initial residual = 0.003891954, Final residual = 3.313082e-18, No Iterations 1
DILUPBiCGStab:  Solving for ILambda_3_0, Initial residual = 0.001798074, Final residual = 2.038024e-18, No Iterations 1
DILUPBiCGStab:  Solving for ILambda_4_0, Initial residual = 0.005170667, Final residual = 0.0004112752, No Iterations 2
DILUPBiCGStab:  Solving for ILambda_5_0, Initial residual = 0.01410352, Final residual = 0.0006733815, No Iterations 5
DILUPBiCGStab:  Solving for ILambda_6_0, Initial residual = 0.01807338, Final residual = 0.001497928, No Iterations 5
DILUPBiCGStab:  Solving for ILambda_7_0, Initial residual = 0.01264619, Final residual = 0.0009815191, No Iterations 8
DILUPBiCGStab:  Solving for ILambda_8_0, Initial residual = 0.01195817, Final residual = 1.815242e-17, No Iterations 1
DILUPBiCGStab:  Solving for ILambda_9_0, Initial residual = 0.009813443, Final residual = 1.15908e-17, No Iterations 1
DILUPBiCGStab:  Solving for ILambda_10_0, Initial residual = 0.008292776, Final residual = 1.174176e-17, No Iterations 1
DILUPBiCGStab:  Solving for ILambda_11_0, Initial residual = 0.005618124, Final residual = 1.357324e-17, No Iterations 1
DILUPBiCGStab:  Solving for ILambda_12_0, Initial residual = 0.01281358, Final residual = 0.001036385, No Iterations 3
DILUPBiCGStab:  Solving for ILambda_13_0, Initial residual = 0.02462377, Final residual = 0.001968622, No Iterations 5
DILUPBiCGStab:  Solving for ILambda_14_0, Initial residual = 0.03032348, Final residual = 0.002705877, No Iterations 5
DILUPBiCGStab:  Solving for ILambda_15_0, Initial residual = 0.03676681, Final residual = 0.002504835, No Iterations 8
Radiation solver iter: 4
DILUPBiCGStab:  Solving for ILambda_0_0, Initial residual = 0.003725341, Final residual = 4.908832e-18, No Iterations 1
DILUPBiCGStab:  Solving for ILambda_1_0, Initial residual = 0.002764019, Final residual = 1.780061e-18, No Iterations 1
DILUPBiCGStab:  Solving for ILambda_2_0, Initial residual = 0.002162787, Final residual = 1.677503e-18, No Iterations 1
DILUPBiCGStab:  Solving for ILambda_3_0, Initial residual = 0.0006912426, Final residual = 8.481309e-19, No Iterations 1
DILUPBiCGStab:  Solving for ILambda_4_0, Initial residual = 0.002031642, Final residual = 0.0001220579, No Iterations 2
DILUPBiCGStab:  Solving for ILambda_5_0, Initial residual = 0.008775496, Final residual = 7.533179e-05, No Iterations 6
DILUPBiCGStab:  Solving for ILambda_6_0, Initial residual = 0.01384242, Final residual = 0.001298381, No Iterations 3
DILUPBiCGStab:  Solving for ILambda_7_0, Initial residual = 0.01013879, Final residual = 0.0006306392, No Iterations 6
DILUPBiCGStab:  Solving for ILambda_8_0, Initial residual = 0.009309557, Final residual = 1.253577e-17, No Iterations 1
DILUPBiCGStab:  Solving for ILambda_9_0, Initial residual = 0.007456104, Final residual = 8.100595e-18, No Iterations 1
DILUPBiCGStab:  Solving for ILambda_10_0, Initial residual = 0.005483666, Final residual = 7.678079e-18, No Iterations 1
DILUPBiCGStab:  Solving for ILambda_11_0, Initial residual = 0.003254291, Final residual = 7.502262e-18, No Iterations 1
DILUPBiCGStab:  Solving for ILambda_12_0, Initial residual = 0.005985512, Final residual = 0.0004268218, No Iterations 3
DILUPBiCGStab:  Solving for ILambda_13_0, Initial residual = 0.01661703, Final residual = 0.001213569, No Iterations 5
DILUPBiCGStab:  Solving for ILambda_14_0, Initial residual = 0.02417001, Final residual = 0.001987216, No Iterations 4
DILUPBiCGStab:  Solving for ILambda_15_0, Initial residual = 0.02968897, Final residual = 0.002779869, No Iterations 5
Radiation solver iter: 5
DILUPBiCGStab:  Solving for ILambda_0_0, Initial residual = 0.002824042, Final residual = 4.143165e-18, No Iterations 1
DILUPBiCGStab:  Solving for ILambda_1_0, Initial residual = 0.002038015, Final residual = 1.393611e-18, No Iterations 1
DILUPBiCGStab:  Solving for ILambda_2_0, Initial residual = 0.001355148, Final residual = 1.041523e-18, No Iterations 1
DILUPBiCGStab:  Solving for ILambda_4_0, Initial residual = 0.0008112921, Final residual = 9.772335e-05, No Iterations 2
DILUPBiCGStab:  Solving for ILambda_5_0, Initial residual = 0.005980817, Final residual = 0.0001492302, No Iterations 5
DILUPBiCGStab:  Solving for ILambda_6_0, Initial residual = 0.01130722, Final residual = 0.001117685, No Iterations 3
DILUPBiCGStab:  Solving for ILambda_7_0, Initial residual = 0.00874719, Final residual = 0.0008103932, No Iterations 4
DILUPBiCGStab:  Solving for ILambda_8_0, Initial residual = 0.00781941, Final residual = 8.82765e-18, No Iterations 1
DILUPBiCGStab:  Solving for ILambda_9_0, Initial residual = 0.006053169, Final residual = 6.259382e-18, No Iterations 1
DILUPBiCGStab:  Solving for ILambda_10_0, Initial residual = 0.003856524, Final residual = 4.629404e-18, No Iterations 1
DILUPBiCGStab:  Solving for ILambda_11_0, Initial residual = 0.002039919, Final residual = 4.945169e-18, No Iterations 1
DILUPBiCGStab:  Solving for ILambda_12_0, Initial residual = 0.002912076, Final residual = 0.0002842442, No Iterations 3
DILUPBiCGStab:  Solving for ILambda_13_0, Initial residual = 0.011445, Final residual = 0.000789925, No Iterations 5
DILUPBiCGStab:  Solving for ILambda_14_0, Initial residual = 0.01946873, Final residual = 0.001483257, No Iterations 4
DILUPBiCGStab:  Solving for ILambda_15_0, Initial residual = 0.02536805, Final residual = 0.001175508, No Iterations 6
Radiation solver iter: 6
DILUPBiCGStab:  Solving for ILambda_0_0, Initial residual = 0.002243358, Final residual = 2.495546e-18, No Iterations 1
DILUPBiCGStab:  Solving for ILambda_1_0, Initial residual = 0.001612097, Final residual = 1.03171e-18, No Iterations 1
DILUPBiCGStab:  Solving for ILambda_2_0, Initial residual = 0.0008543157, Final residual = 7.642892e-19, No Iterations 1
DILUPBiCGStab:  Solving for ILambda_5_0, Initial residual = 0.004067226, Final residual = 0.0003838189, No Iterations 3
DILUPBiCGStab:  Solving for ILambda_6_0, Initial residual = 0.009352925, Final residual = 0.0007825057, No Iterations 3
DILUPBiCGStab:  Solving for ILambda_7_0, Initial residual = 0.007852695, Final residual = 0.0005985314, No Iterations 4
DILUPBiCGStab:  Solving for ILambda_8_0, Initial residual = 0.006716702, Final residual = 6.742177e-18, No Iterations 1
DILUPBiCGStab:  Solving for ILambda_9_0, Initial residual = 0.004936579, Final residual = 4.756253e-18, No Iterations 1
DILUPBiCGStab:  Solving for ILambda_10_0, Initial residual = 0.00287072, Final residual = 3.194838e-18, No Iterations 1
DILUPBiCGStab:  Solving for ILambda_11_0, Initial residual = 0.001513822, Final residual = 3.594733e-18, No Iterations 1
DILUPBiCGStab:  Solving for ILambda_12_0, Initial residual = 0.001839544, Final residual = 6.476786e-05, No Iterations 4
DILUPBiCGStab:  Solving for ILambda_13_0, Initial residual = 0.007956897, Final residual = 0.0007368549, No Iterations 4
DILUPBiCGStab:  Solving for ILambda_14_0, Initial residual = 0.01548109, Final residual = 0.00117246, No Iterations 3
DILUPBiCGStab:  Solving for ILambda_15_0, Initial residual = 0.02139466, Final residual = 0.00192445, No Iterations 4
Radiation solver iter: 7
DILUPBiCGStab:  Solving for ILambda_0_0, Initial residual = 0.001827921, Final residual = 2.039426e-18, No Iterations 1
DILUPBiCGStab:  Solving for ILambda_1_0, Initial residual = 0.00132655, Final residual = 9.416511e-19, No Iterations 1
DILUPBiCGStab:  Solving for ILambda_5_0, Initial residual = 0.002704804, Final residual = 0.0001950877, No Iterations 3
DILUPBiCGStab:  Solving for ILambda_6_0, Initial residual = 0.007633628, Final residual = 0.0006486873, No Iterations 2
DILUPBiCGStab:  Solving for ILambda_7_0, Initial residual = 0.006966685, Final residual = 0.0006813744, No Iterations 4
DILUPBiCGStab:  Solving for ILambda_8_0, Initial residual = 0.005789251, Final residual = 5.776295e-18, No Iterations 1
DILUPBiCGStab:  Solving for ILambda_9_0, Initial residual = 0.00396158, Final residual = 3.493175e-18, No Iterations 1
DILUPBiCGStab:  Solving for ILambda_10_0, Initial residual = 0.002265009, Final residual = 2.605294e-18, No Iterations 1
DILUPBiCGStab:  Solving for ILambda_11_0, Initial residual = 0.001215261, Final residual = 3.07605e-18, No Iterations 1
DILUPBiCGStab:  Solving for ILambda_12_0, Initial residual = 0.001228802, Final residual = 4.390647e-05, No Iterations 4
DILUPBiCGStab:  Solving for ILambda_13_0, Initial residual = 0.00555069, Final residual = 0.0005454742, No Iterations 3
DILUPBiCGStab:  Solving for ILambda_14_0, Initial residual = 0.01249885, Final residual = 0.0009200053, No Iterations 3
DILUPBiCGStab:  Solving for ILambda_15_0, Initial residual = 0.01861943, Final residual = 0.001479121, No Iterations 6
Radiation solver iter: 8
DILUPBiCGStab:  Solving for ILambda_0_0, Initial residual = 0.00150858, Final residual = 1.467489e-18, No Iterations 1
DILUPBiCGStab:  Solving for ILambda_1_0, Initial residual = 0.00109748, Final residual = 6.057407e-19, No Iterations 1
DILUPBiCGStab:  Solving for ILambda_5_0, Initial residual = 0.001736221, Final residual = 0.0001170452, No Iterations 3
DILUPBiCGStab:  Solving for ILambda_6_0, Initial residual = 0.006182912, Final residual = 0.0004883969, No Iterations 2
DILUPBiCGStab:  Solving for ILambda_7_0, Initial residual = 0.006184223, Final residual = 0.0001520059, No Iterations 6
DILUPBiCGStab:  Solving for ILambda_8_0, Initial residual = 0.004977054, Final residual = 4.637988e-18, No Iterations 1
DILUPBiCGStab:  Solving for ILambda_9_0, Initial residual = 0.003152118, Final residual = 2.5018e-18, No Iterations 1
DILUPBiCGStab:  Solving for ILambda_10_0, Initial residual = 0.001900924, Final residual = 2.349936e-18, No Iterations 1
DILUPBiCGStab:  Solving for ILambda_11_0, Initial residual = 0.001037196, Final residual = 2.637963e-18, No Iterations 1
DILUPBiCGStab:  Solving for ILambda_12_0, Initial residual = 0.0009865773, Final residual = 4.982193e-05, No Iterations 4
DILUPBiCGStab:  Solving for ILambda_13_0, Initial residual = 0.003932471, Final residual = 0.0003549906, No Iterations 3
DILUPBiCGStab:  Solving for ILambda_14_0, Initial residual = 0.01013095, Final residual = 0.000851579, No Iterations 3
DILUPBiCGStab:  Solving for ILambda_15_0, Initial residual = 0.01607646, Final residual = 0.00118836, No Iterations 4
Radiation solver iter: 9
DILUPBiCGStab:  Solving for ILambda_0_0, Initial residual = 0.001254581, Final residual = 1.385711e-18, No Iterations 1
DILUPBiCGStab:  Solving for ILambda_1_0, Initial residual = 0.0008992456, Final residual = 5.916445e-19, No Iterations 1
DILUPBiCGStab:  Solving for ILambda_5_0, Initial residual = 0.001093809, Final residual = 6.738393e-05, No Iterations 3
DILUPBiCGStab:  Solving for ILambda_6_0, Initial residual = 0.004917337, Final residual = 0.0003634943, No Iterations 2
DILUPBiCGStab:  Solving for ILambda_7_0, Initial residual = 0.005294015, Final residual = 0.0004034813, No Iterations 3
DILUPBiCGStab:  Solving for ILambda_8_0, Initial residual = 0.004257685, Final residual = 3.384143e-18, No Iterations 1
DILUPBiCGStab:  Solving for ILambda_9_0, Initial residual = 0.002509721, Final residual = 1.921827e-18, No Iterations 1
DILUPBiCGStab:  Solving for ILambda_10_0, Initial residual = 0.001604755, Final residual = 2.109766e-18, No Iterations 1
DILUPBiCGStab:  Solving for ILambda_11_0, Initial residual = 0.0008672734, Final residual = 2.102339e-18, No Iterations 1
DILUPBiCGStab:  Solving for ILambda_13_0, Initial residual = 0.002834695, Final residual = 0.0002655122, No Iterations 3
DILUPBiCGStab:  Solving for ILambda_14_0, Initial residual = 0.00822302, Final residual = 0.000793016, No Iterations 3
DILUPBiCGStab:  Solving for ILambda_15_0, Initial residual = 0.01365245, Final residual = 0.0007950908, No Iterations 4
Radiation solver iter: 10
DILUPBiCGStab:  Solving for ILambda_0_0, Initial residual = 0.001049225, Final residual = 9.762077e-19, No Iterations 1
DILUPBiCGStab:  Solving for ILambda_5_0, Initial residual = 0.0006683357, Final residual = 6.814643e-05, No Iterations 2
DILUPBiCGStab:  Solving for ILambda_6_0, Initial residual = 0.003843482, Final residual = 0.0002628793, No Iterations 2
DILUPBiCGStab:  Solving for ILambda_7_0, Initial residual = 0.004677194, Final residual = 0.00017357, No Iterations 4
DILUPBiCGStab:  Solving for ILambda_8_0, Initial residual = 0.003623194, Final residual = 2.938277e-18, No Iterations 1
DILUPBiCGStab:  Solving for ILambda_9_0, Initial residual = 0.002013508, Final residual = 1.537662e-18, No Iterations 1
DILUPBiCGStab:  Solving for ILambda_10_0, Initial residual = 0.001324196, Final residual = 1.515008e-18, No Iterations 1
DILUPBiCGStab:  Solving for ILambda_13_0, Initial residual = 0.002043528, Final residual = 0.0001811996, No Iterations 4
DILUPBiCGStab:  Solving for ILambda_14_0, Initial residual = 0.00654085, Final residual = 0.0006293971, No Iterations 3
DILUPBiCGStab:  Solving for ILambda_15_0, Initial residual = 0.01155897, Final residual = 0.0005917828, No Iterations 4
Radiation solver iter: 11
DILUPBiCGStab:  Solving for ILambda_0_0, Initial residual = 0.0008816354, Final residual = 7.327116e-19, No Iterations 1
DILUPBiCGStab:  Solving for ILambda_6_0, Initial residual = 0.002958432, Final residual = 0.0001828711, No Iterations 2
DILUPBiCGStab:  Solving for ILambda_7_0, Initial residual = 0.004013299, Final residual = 0.0003392511, No Iterations 2
DILUPBiCGStab:  Solving for ILambda_8_0, Initial residual = 0.003065934, Final residual = 2.231938e-18, No Iterations 1
DILUPBiCGStab:  Solving for ILambda_9_0, Initial residual = 0.001641039, Final residual = 1.218983e-18, No Iterations 1
DILUPBiCGStab:  Solving for ILambda_10_0, Initial residual = 0.001055362, Final residual = 1.176185e-18, No Iterations 1
DILUPBiCGStab:  Solving for ILambda_13_0, Initial residual = 0.001428882, Final residual = 5.010176e-05, No Iterations 6
DILUPBiCGStab:  Solving for ILambda_14_0, Initial residual = 0.005187996, Final residual = 0.0004954982, No Iterations 3
DILUPBiCGStab:  Solving for ILambda_15_0, Initial residual = 0.009846757, Final residual = 0.0008048544, No Iterations 3
Radiation solver iter: 12
DILUPBiCGStab:  Solving for ILambda_6_0, Initial residual = 0.002238709, Final residual = 0.0001224195, No Iterations 2
DILUPBiCGStab:  Solving for ILambda_7_0, Initial residual = 0.003528671, Final residual = 0.0003364733, No Iterations 2
DILUPBiCGStab:  Solving for ILambda_8_0, Initial residual = 0.002586803, Final residual = 1.885614e-18, No Iterations 1
DILUPBiCGStab:  Solving for ILambda_9_0, Initial residual = 0.001371995, Final residual = 9.188927e-19, No Iterations 1
DILUPBiCGStab:  Solving for ILambda_10_0, Initial residual = 0.0008265006, Final residual = 9.583037e-19, No Iterations 1
DILUPBiCGStab:  Solving for ILambda_13_0, Initial residual = 0.0009686095, Final residual = 9.161298e-05, No Iterations 4
DILUPBiCGStab:  Solving for ILambda_14_0, Initial residual = 0.004056578, Final residual = 0.0003692829, No Iterations 3
DILUPBiCGStab:  Solving for ILambda_15_0, Initial residual = 0.008541374, Final residual = 0.0006740004, No Iterations 3
Radiation solver iter: 13
DILUPBiCGStab:  Solving for ILambda_6_0, Initial residual = 0.001668386, Final residual = 0.0001502837, No Iterations 2
DILUPBiCGStab:  Solving for ILambda_7_0, Initial residual = 0.003091188, Final residual = 0.0001792189, No Iterations 3
DILUPBiCGStab:  Solving for ILambda_8_0, Initial residual = 0.002179224, Final residual = 1.413902e-18, No Iterations 1
DILUPBiCGStab:  Solving for ILambda_9_0, Initial residual = 0.001169113, Final residual = 7.952148e-19, No Iterations 1
DILUPBiCGStab:  Solving for ILambda_14_0, Initial residual = 0.003127338, Final residual = 0.0002713344, No Iterations 3
DILUPBiCGStab:  Solving for ILambda_15_0, Initial residual = 0.007286569, Final residual = 0.0006641138, No Iterations 5
Radiation solver iter: 14
DILUPBiCGStab:  Solving for ILambda_6_0, Initial residual = 0.001236608, Final residual = 9.940782e-05, No Iterations 2
DILUPBiCGStab:  Solving for ILambda_7_0, Initial residual = 0.002641663, Final residual = 0.0002504931, No Iterations 2
DILUPBiCGStab:  Solving for ILambda_8_0, Initial residual = 0.001835164, Final residual = 1.280462e-18, No Iterations 1
DILUPBiCGStab:  Solving for ILambda_9_0, Initial residual = 0.001001788, Final residual = 6.750448e-19, No Iterations 1
DILUPBiCGStab:  Solving for ILambda_14_0, Initial residual = 0.002394262, Final residual = 0.0002074553, No Iterations 3
DILUPBiCGStab:  Solving for ILambda_15_0, Initial residual = 0.00617687, Final residual = 0.0005814815, No Iterations 3
GAMG:  Solving for p_rgh, Initial residual = 0.9450864, Final residual = 0.00685909, No Iterations 3
limitVelocity limitU Limited 0 (0%) of cells, with max limit 8
time step continuity errors : sum local = 0.00186893, global = 4.124039e-18, cumulative = 2.615295e-15
rho min/max : 0.5319441 1.014425
DILUPBiCGStab:  Solving for omega, Initial residual = 0.0005587407, Final residual = 1.747852e-05, No Iterations 1
DILUPBiCGStab:  Solving for k, Initial residual = 0.00167437, Final residual = 7.216669e-05, No Iterations 1
ExecutionTime = 0.54 s  ClockTime = 0 s

Time = 1002

DILUPBiCGStab:  Solving for h, Initial residual = 0.2978371, Final residual = 4.019785e-05, No Iterations 1
limitTemperature limitT Lower limited 0 (0%) of cells, with min limit 280
limitTemperature limitT Upper limited 0 (0%) of cells, with max limit 1200
limitTemperature limitT Unlimited Tmin 449.3533
limitTemperature limitT Unlimited Tmax 452.0496
Radiation solver iter: 0
DILUPBiCGStab:  Solving for ILambda_0_0, Initial residual = 0.1908986, Final residual = 1.94373e-15, No Iterations 1
DILUPBiCGStab:  Solving for ILambda_1_0, Initial residual = 0.3620678, Final residual = 2.460817e-15, No Iterations 1
DILUPBiCGStab:  Solving for ILambda_2_0, Initial residual = 0.4707201, Final residual = 2.725542e-15, No Iterations 1
DILUPBiCGStab:  Solving for ILambda_3_0, Initial residual = 0.5582663, Final residual = 2.813677e-15, No Iterations 1
DILUPBiCGStab:  Solving for ILambda_4_0, Initial residual = 0.5559181, Final residual = 0.02187506, No Iterations 4
DILUPBiCGStab:  Solving for ILambda_5_0, Initial residual = 0.4698334, Final residual = 0.0183027, No Iterations 11
DILUPBiCGStab:  Solving for ILambda_6_0, Initial residual = 0.3656819, Final residual = 0.02124964, No Iterations 19
DILUPBiCGStab:  Solving for ILambda_7_0, Initial residual = 0.2054505, Final residual = 0.01524228, No Iterations 33
DILUPBiCGStab:  Solving for ILambda_8_0, Initial residual = 0.1766236, Final residual = 1.420143e-15, No Iterations 1
DILUPBiCGStab:  Solving for ILambda_9_0, Initial residual = 0.2966256, Final residual = 1.775986e-15, No Iterations 1
DILUPBiCGStab:  Solving for ILambda_10_0, Initial residual = 0.4108957, Final residual = 2.112637e-15, No Iterations 1
DILUPBiCGStab:  Solving for ILambda_11_0, Initial residual = 0.5399739, Final residual = 2.643527e-15, No Iterations 1
DILUPBiCGStab:  Solving for ILambda_12_0, Initial residual = 0.5391145, Final residual = 0.01056191, No Iterations 5
DILUPBiCGStab:  Solving for ILambda_13_0, Initial residual = 0.410998, Final residual = 0.00369935, No Iterations 11
DILUPBiCGStab:  Solving for ILambda_14_0, Initial residual = 0.2993959, Final residual = 0.01149016, No Iterations 19
DILUPBiCGStab:  Solving for ILambda_15_0, Initial residual = 0.1900181, Final residual = 0.009301233, No Iterations 32
Radiation solver iter: 1
DILUPBiCGStab:  Solving for ILambda_0_0, Initial residual = 0.05325122, Final residual = 2.082008e-16, No Iterations 1
DILUPBiCGStab:  Solving for ILambda_1_0, Initial residual = 0.06579965, Final residual = 2.035636e-16, No Iterations 1
DILUPBiCGStab:  Solving for ILambda_2_0, Initial residual = 0.07449998, Final residual = 2.254321e-16, No Iterations 1
DILUPBiCGStab:  Solving for ILambda_3_0, Initial residual = 0.07624201, Final residual = 2.652072e-16, No Iterations 1
DILUPBiCGStab:  Solving for ILambda_4_0, Initial residual = 0.1265139, Final residual = 0.01153258, No Iterations 3
DILUPBiCGStab:  Solving for ILambda_5_0, Initial residual = 0.1008597, Final residual = 0.007683601, No Iterations 9
DILUPBiCGStab:  Solving for ILambda_6_0, Initial residual = 0.07869734, Final residual = 0.002748908, No Iterations 14
DILUPBiCGStab:  Solving for ILambda_7_0, Initial residual = 0.04889645, Final residual = 0.003208789, No Iterations 18
DILUPBiCGStab:  Solving for ILambda_8_0, Initial residual = 0.01773618, Final residual = 7.012641e-17, No Iterations 1
DILUPBiCGStab:  Solving for ILambda_9_0, Initial residual = 0.02432315, Final residual = 9.923302e-17, No Iterations 1
DILUPBiCGStab:  Solving for ILambda_10_0, Initial residual = 0.03477589, Final residual = 1.38025e-16, No Iterations 1
DILUPBiCGStab:  Solving for ILambda_11_0, Initial residual = 0.0499387, Final residual = 2.167712e-16, No Iterations 1
DILUPBiCGStab:  Solving for ILambda_12_0, Initial residual = 0.06861412, Final residual = 0.003255855, No Iterations 4
DILUPBiCGStab:  Solving for ILambda_13_0, Initial residual = 0.03958959, Final residual = 0.0002225264, No Iterations 9
DILUPBiCGStab:  Solving for ILambda_14_0, Initial residual = 0.03653867, Final residual = 0.000471033, No Iterations 14
DILUPBiCGStab:  Solving for ILambda_15_0, Initial residual = 0.02558137, Final residual = 0.002529056, No Iterations 18
Radiation solver iter: 2
DILUPBiCGStab:  Solving for ILambda_0_0, Initial residual = 0.03325187, Final residual = 7.427889e-17, No Iterations 1
DILUPBiCGStab:  Solving for ILambda_1_0, Initial residual = 0.03541851, Final residual = 4.655939e-17, No Iterations 1
DILUPBiCGStab:  Solving for ILambda_2_0, Initial residual = 0.03550716, Final residual = 4.098103e-17, No Iterations 1
DILUPBiCGStab:  Solving for ILambda_3_0, Initial residual = 0.02459683, Final residual = 3.426038e-17, No Iterations 1
DILUPBiCGStab:  Solving for ILambda_4_0, Initial residual = 0.03457348, Final residual = 0.002762247, No Iterations 3
DILUPBiCGStab:  Solving for ILambda_5_0, Initial residual = 0.04206619, Final residual = 0.003367758, No Iterations 5
DILUPBiCGStab:  Solving for ILambda_6_0, Initial residual = 0.03699967, Final residual = 0.002601375, No Iterations 7
DILUPBiCGStab:  Solving for ILambda_7_0, Initial residual = 0.02613284, Final residual = 0.002246293, No Iterations 9
DILUPBiCGStab:  Solving for ILambda_8_0, Initial residual = 0.007851098, Final residual = 1.301169e-17, No Iterations 1
DILUPBiCGStab:  Solving for ILambda_9_0, Initial residual = 0.01040788, Final residual = 1.782847e-17, No Iterations 1
DILUPBiCGStab:  Solving for ILambda_10_0, Initial residual = 0.01358642, Final residual = 2.808831e-17, No Iterations 1
DILUPBiCGStab:  Solving for ILambda_11_0, Initial residual = 0.01573061, Final residual = 4.745912e-17, No Iterations 1
DILUPBiCGStab:  Solving for ILambda_12_0, Initial residual = 0.01809115, Final residual = 0.001503702, No Iterations 5
DILUPBiCGStab:  Solving for ILambda_13_0, Initial residual = 0.01522052, Final residual = 0.001026942, No Iterations 8
DILUPBiCGStab:  Solving for ILambda_14_0, Initial residual = 0.01258352, Final residual = 0.001185329, No Iterations 10
DILUPBiCGStab:  Solving for ILambda_15_0, Initial residual = 0.01248508, Final residual = 0.001031445, No Iterations 12
Radiation solver iter: 3
DILUPBiCGStab:  Solving for ILambda_0_0, Initial residual = 0.02627262, Final residual = 4.668522e-17, No Iterations 1
DILUPBiCGStab:  Solving for ILambda_1_0, Initial residual = 0.02579496, Final residual = 2.561289e-17, No Iterations 1
DILUPBiCGStab:  Solving for ILambda_2_0, Initial residual = 0.02286372, Final residual = 1.995128e-17, No Iterations 1
DILUPBiCGStab:  Solving for ILambda_3_0, Initial residual = 0.00941694, Final residual = 8.392271e-18, No Iterations 1
DILUPBiCGStab:  Solving for ILambda_4_0, Initial residual = 0.01281998, Final residual = 0.000644053, No Iterations 2
DILUPBiCGStab:  Solving for ILambda_5_0, Initial residual = 0.02793753, Final residual = 0.002026506, No Iterations 4
DILUPBiCGStab:  Solving for ILambda_6_0, Initial residual = 0.02920839, Final residual = 0.002866833, No Iterations 4
DILUPBiCGStab:  Solving for ILambda_7_0, Initial residual = 0.02087237, Final residual = 0.002043537, No Iterations 6
DILUPBiCGStab:  Solving for ILambda_8_0, Initial residual = 0.006387688, Final residual = 8.256113e-18, No Iterations 1
DILUPBiCGStab:  Solving for ILambda_9_0, Initial residual = 0.008954079, Final residual = 1.334428e-17, No Iterations 1
DILUPBiCGStab:  Solving for ILambda_10_0, Initial residual = 0.0109174, Final residual = 1.959848e-17, No Iterations 1
DILUPBiCGStab:  Solving for ILambda_11_0, Initial residual = 0.01080688, Final residual = 3.061786e-17, No Iterations 1
DILUPBiCGStab:  Solving for ILambda_12_0, Initial residual = 0.01110064, Final residual = 0.0009665647, No Iterations 4
DILUPBiCGStab:  Solving for ILambda_13_0, Initial residual = 0.01188435, Final residual = 7.645202e-05, No Iterations 10
DILUPBiCGStab:  Solving for ILambda_14_0, Initial residual = 0.01042627, Final residual = 0.0009899123, No Iterations 7
DILUPBiCGStab:  Solving for ILambda_15_0, Initial residual = 0.009285698, Final residual = 0.0008540261, No Iterations 9
Radiation solver iter: 4
DILUPBiCGStab:  Solving for ILambda_0_0, Initial residual = 0.02193562, Final residual = 3.477913e-17, No Iterations 1
DILUPBiCGStab:  Solving for ILambda_1_0, Initial residual = 0.02042246, Final residual = 1.848708e-17, No Iterations 1
DILUPBiCGStab:  Solving for ILambda_2_0, Initial residual = 0.01560603, Final residual = 1.147409e-17, No Iterations 1
DILUPBiCGStab:  Solving for ILambda_3_0, Initial residual = 0.00401467, Final residual = 2.694324e-18, No Iterations 1
DILUPBiCGStab:  Solving for ILambda_4_0, Initial residual = 0.00519544, Final residual = 0.0004069312, No Iterations 2
DILUPBiCGStab:  Solving for ILambda_5_0, Initial residual = 0.01975937, Final residual = 0.001348354, No Iterations 3
DILUPBiCGStab:  Solving for ILambda_6_0, Initial residual = 0.02431226, Final residual = 0.002319916, No Iterations 3
DILUPBiCGStab:  Solving for ILambda_7_0, Initial residual = 0.01825206, Final residual = 0.001273483, No Iterations 6
DILUPBiCGStab:  Solving for ILambda_8_0, Initial residual = 0.005434226, Final residual = 6.336373e-18, No Iterations 1
DILUPBiCGStab:  Solving for ILambda_9_0, Initial residual = 0.007689239, Final residual = 1.007986e-17, No Iterations 1
DILUPBiCGStab:  Solving for ILambda_10_0, Initial residual = 0.008421873, Final residual = 1.462889e-17, No Iterations 1
DILUPBiCGStab:  Solving for ILambda_11_0, Initial residual = 0.007212792, Final residual = 2.05279e-17, No Iterations 1
DILUPBiCGStab:  Solving for ILambda_12_0, Initial residual = 0.007085689, Final residual = 0.0005867107, No Iterations 5
DILUPBiCGStab:  Solving for ILambda_13_0, Initial residual = 0.008621964, Final residual = 0.0007473779, No Iterations 7
DILUPBiCGStab:  Solving for ILambda_14_0, Initial residual = 0.008762696, Final residual = 0.0007030273, No Iterations 8
DILUPBiCGStab:  Solving for ILambda_15_0, Initial residual = 0.007699218, Final residual = 0.000285235, No Iterations 9
Radiation solver iter: 5
DILUPBiCGStab:  Solving for ILambda_0_0, Initial residual = 0.01895827, Final residual = 2.526535e-17, No Iterations 1
DILUPBiCGStab:  Solving for ILambda_1_0, Initial residual = 0.01681568, Final residual = 1.329453e-17, No Iterations 1
DILUPBiCGStab:  Solving for ILambda_2_0, Initial residual = 0.01086329, Final residual = 7.492799e-18, No Iterations 1
DILUPBiCGStab:  Solving for ILambda_3_0, Initial residual = 0.001556699, Final residual = 1.204487e-18, No Iterations 1
DILUPBiCGStab:  Solving for ILambda_4_0, Initial residual = 0.002071428, Final residual = 0.0001657073, No Iterations 2
DILUPBiCGStab:  Solving for ILambda_5_0, Initial residual = 0.01406234, Final residual = 0.001149108, No Iterations 3
DILUPBiCGStab:  Solving for ILambda_6_0, Initial residual = 0.02083109, Final residual = 0.001984833, No Iterations 3
DILUPBiCGStab:  Solving for ILambda_7_0, Initial residual = 0.01621528, Final residual = 0.001407727, No Iterations 4
DILUPBiCGStab:  Solving for ILambda_8_0, Initial residual = 0.004758972, Final residual = 5.096434e-18, No Iterations 1
DILUPBiCGStab:  Solving for ILambda_9_0, Initial residual = 0.006640058, Final residual = 8.09471e-18, No Iterations 1
DILUPBiCGStab:  Solving for ILambda_10_0, Initial residual = 0.006429481, Final residual = 1.039457e-17, No Iterations 1
DILUPBiCGStab:  Solving for ILambda_11_0, Initial residual = 0.005014432, Final residual = 1.343665e-17, No Iterations 1
DILUPBiCGStab:  Solving for ILambda_12_0, Initial residual = 0.004693541, Final residual = 0.0004328417, No Iterations 3
DILUPBiCGStab:  Solving for ILambda_13_0, Initial residual = 0.006564272, Final residual = 0.0003997174, No Iterations 7
DILUPBiCGStab:  Solving for ILambda_14_0, Initial residual = 0.007204325, Final residual = 0.0005649932, No Iterations 9
DILUPBiCGStab:  Solving for ILambda_15_0, Initial residual = 0.006409719, Final residual = 0.0006028382, No Iterations 6
Radiation solver iter: 6
DILUPBiCGStab:  Solving for ILambda_0_0, Initial residual = 0.01655997, Final residual = 1.972446e-17, No Iterations 1
DILUPBiCGStab:  Solving for ILambda_1_0, Initial residual = 0.01388534, Final residual = 1.050423e-17, No Iterations 1
DILUPBiCGStab:  Solving for ILambda_2_0, Initial residual = 0.007425811, Final residual = 4.206261e-18, No Iterations 1
DILUPBiCGStab:  Solving for ILambda_3_0, Initial residual = 0.0006069983, Final residual = 5.011892e-19, No Iterations 1
DILUPBiCGStab:  Solving for ILambda_4_0, Initial residual = 0.0008337999, Final residual = 8.498849e-05, No Iterations 2
DILUPBiCGStab:  Solving for ILambda_5_0, Initial residual = 0.009751059, Final residual = 0.0008515578, No Iterations 3
DILUPBiCGStab:  Solving for ILambda_6_0, Initial residual = 0.01765915, Final residual = 0.000629805, No Iterations 4
DILUPBiCGStab:  Solving for ILambda_7_0, Initial residual = 0.01463553, Final residual = 0.001421641, No Iterations 4
DILUPBiCGStab:  Solving for ILambda_8_0, Initial residual = 0.004184547, Final residual = 4.480447e-18, No Iterations 1
DILUPBiCGStab:  Solving for ILambda_9_0, Initial residual = 0.005654369, Final residual = 6.728265e-18, No Iterations 1
DILUPBiCGStab:  Solving for ILambda_10_0, Initial residual = 0.005009228, Final residual = 7.408805e-18, No Iterations 1
DILUPBiCGStab:  Solving for ILambda_11_0, Initial residual = 0.003827562, Final residual = 1.027405e-17, No Iterations 1
DILUPBiCGStab:  Solving for ILambda_12_0, Initial residual = 0.003825485, Final residual = 0.0003359498, No Iterations 4
DILUPBiCGStab:  Solving for ILambda_13_0, Initial residual = 0.004883094, Final residual = 0.0004223954, No Iterations 6
DILUPBiCGStab:  Solving for ILambda_14_0, Initial residual = 0.005818445, Final residual = 0.000406103, No Iterations 7
DILUPBiCGStab:  Solving for ILambda_15_0, Initial residual = 0.005627831, Final residual = 0.0004744778, No Iterations 5
Radiation solver iter: 7
DILUPBiCGStab:  Solving for ILambda_0_0, Initial residual = 0.01448675, Final residual = 1.604832e-17, No Iterations 1
DILUPBiCGStab:  Solving for ILambda_1_0, Initial residual = 0.01140254, Final residual = 6.814897e-18, No Iterations 1
DILUPBiCGStab:  Solving for ILambda_2_0, Initial residual = 0.004920914, Final residual = 2.853376e-18, No Iterations 1
DILUPBiCGStab:  Solving for ILambda_5_0, Initial residual = 0.006503929, Final residual = 0.0005794745, No Iterations 2
DILUPBiCGStab:  Solving for ILambda_6_0, Initial residual = 0.01453912, Final residual = 0.001246009, No Iterations 2
DILUPBiCGStab:  Solving for ILambda_7_0, Initial residual = 0.01318761, Final residual = 0.0009367872, No Iterations 4
DILUPBiCGStab:  Solving for ILambda_8_0, Initial residual = 0.003642443, Final residual = 3.303962e-18, No Iterations 1
DILUPBiCGStab:  Solving for ILambda_9_0, Initial residual = 0.004759375, Final residual = 5.125378e-18, No Iterations 1
DILUPBiCGStab:  Solving for ILambda_10_0, Initial residual = 0.004053514, Final residual = 5.567385e-18, No Iterations 1
DILUPBiCGStab:  Solving for ILambda_11_0, Initial residual = 0.003062169, Final residual = 8.010414e-18, No Iterations 1
DILUPBiCGStab:  Solving for ILambda_12_0, Initial residual = 0.002963119, Final residual = 0.0001718929, No Iterations 4
DILUPBiCGStab:  Solving for ILambda_13_0, Initial residual = 0.004056434, Final residual = 0.0002426331, No Iterations 7
DILUPBiCGStab:  Solving for ILambda_14_0, Initial residual = 0.004668639, Final residual = 0.0004360901, No Iterations 7
DILUPBiCGStab:  Solving for ILambda_15_0, Initial residual = 0.004839168, Final residual = 0.0003368358, No Iterations 7
Radiation solver iter: 8
DILUPBiCGStab:  Solving for ILambda_0_0, Initial residual = 0.01263924, Final residual = 1.331114e-17, No Iterations 1
DILUPBiCGStab:  Solving for ILambda_1_0, Initial residual = 0.009282769, Final residual = 5.321332e-18, No Iterations 1
DILUPBiCGStab:  Solving for ILambda_2_0, Initial residual = 0.00314593, Final residual = 1.696301e-18, No Iterations 1
DILUPBiCGStab:  Solving for ILambda_5_0, Initial residual = 0.004124, Final residual = 0.000380831, No Iterations 2
DILUPBiCGStab:  Solving for ILambda_6_0, Initial residual = 0.01197108, Final residual = 0.0008585182, No Iterations 2
DILUPBiCGStab:  Solving for ILambda_7_0, Initial residual = 0.01173392, Final residual = 0.0006124533, No Iterations 4
DILUPBiCGStab:  Solving for ILambda_8_0, Initial residual = 0.003158205, Final residual = 2.640123e-18, No Iterations 1
DILUPBiCGStab:  Solving for ILambda_9_0, Initial residual = 0.004028776, Final residual = 3.94422e-18, No Iterations 1
DILUPBiCGStab:  Solving for ILambda_10_0, Initial residual = 0.003447026, Final residual = 4.453048e-18, No Iterations 1
DILUPBiCGStab:  Solving for ILambda_11_0, Initial residual = 0.002544925, Final residual = 6.495052e-18, No Iterations 1
DILUPBiCGStab:  Solving for ILambda_12_0, Initial residual = 0.002415056, Final residual = 1.631853e-05, No Iterations 5
DILUPBiCGStab:  Solving for ILambda_13_0, Initial residual = 0.003378736, Final residual = 7.506647e-05, No Iterations 9
DILUPBiCGStab:  Solving for ILambda_14_0, Initial residual = 0.003810484, Final residual = 0.0003795188, No Iterations 7
DILUPBiCGStab:  Solving for ILambda_15_0, Initial residual = 0.004121413, Final residual = 0.0003200524, No Iterations 5
Radiation solver iter: 9
DILUPBiCGStab:  Solving for ILambda_0_0, Initial residual = 0.01099641, Final residual = 1.009278e-17, No Iterations 1
DILUPBiCGStab:  Solving for ILambda_1_0, Initial residual = 0.007445023, Final residual = 4.368745e-18, No Iterations 1
DILUPBiCGStab:  Solving for ILambda_2_0, Initial residual = 0.001958791, Final residual = 1.04681e-18, No Iterations 1
DILUPBiCGStab:  Solving for ILambda_5_0, Initial residual = 0.002517029, Final residual = 0.0001717862, No Iterations 2
DILUPBiCGStab:  Solving for ILambda_6_0, Initial residual = 0.00963236, Final residual = 0.0006318051, No Iterations 2
DILUPBiCGStab:  Solving for ILambda_7_0, Initial residual = 0.01036421, Final residual = 0.001012953, No Iterations 3
DILUPBiCGStab:  Solving for ILambda_8_0, Initial residual = 0.002744828, Final residual = 2.138747e-18, No Iterations 1
DILUPBiCGStab:  Solving for ILambda_9_0, Initial residual = 0.003440608, Final residual = 3.011147e-18, No Iterations 1
DILUPBiCGStab:  Solving for ILambda_10_0, Initial residual = 0.002950624, Final residual = 3.809536e-18, No Iterations 1
DILUPBiCGStab:  Solving for ILambda_11_0, Initial residual = 0.002088658, Final residual = 5.225715e-18, No Iterations 1
DILUPBiCGStab:  Solving for ILambda_12_0, Initial residual = 0.002027588, Final residual = 0.0001190087, No Iterations 4
DILUPBiCGStab:  Solving for ILambda_13_0, Initial residual = 0.002820411, Final residual = 0.0001089073, No Iterations 8
DILUPBiCGStab:  Solving for ILambda_14_0, Initial residual = 0.003159171, Final residual = 0.0002897102, No Iterations 6
DILUPBiCGStab:  Solving for ILambda_15_0, Initial residual = 0.003511168, Final residual = 0.0002732093, No Iterations 4
Radiation solver iter: 10
DILUPBiCGStab:  Solving for ILambda_0_0, Initial residual = 0.00950934, Final residual = 8.407741e-18, No Iterations 1
DILUPBiCGStab:  Solving for ILambda_1_0, Initial residual = 0.005893908, Final residual = 3.33805e-18, No Iterations 1
DILUPBiCGStab:  Solving for ILambda_2_0, Initial residual = 0.001176028, Final residual = 5.848681e-19, No Iterations 1
DILUPBiCGStab:  Solving for ILambda_5_0, Initial residual = 0.001489774, Final residual = 0.0001025056, No Iterations 2
DILUPBiCGStab:  Solving for ILambda_6_0, Initial residual = 0.007604795, Final residual = 0.0004646364, No Iterations 2
DILUPBiCGStab:  Solving for ILambda_7_0, Initial residual = 0.009230555, Final residual = 0.0004512718, No Iterations 4
DILUPBiCGStab:  Solving for ILambda_8_0, Initial residual = 0.002379067, Final residual = 1.614867e-18, No Iterations 1
DILUPBiCGStab:  Solving for ILambda_9_0, Initial residual = 0.00295341, Final residual = 2.638006e-18, No Iterations 1
DILUPBiCGStab:  Solving for ILambda_10_0, Initial residual = 0.002485613, Final residual = 3.130075e-18, No Iterations 1
DILUPBiCGStab:  Solving for ILambda_11_0, Initial residual = 0.001675351, Final residual = 4.213856e-18, No Iterations 1
DILUPBiCGStab:  Solving for ILambda_12_0, Initial residual = 0.001683039, Final residual = 7.254787e-05, No Iterations 4
DILUPBiCGStab:  Solving for ILambda_13_0, Initial residual = 0.002407464, Final residual = 9.580232e-05, No Iterations 8
DILUPBiCGStab:  Solving for ILambda_14_0, Initial residual = 0.00268341, Final residual = 0.000156386, No Iterations 8
DILUPBiCGStab:  Solving for ILambda_15_0, Initial residual = 0.002961299, Final residual = 0.0002679438, No Iterations 3
Radiation solver iter: 11
DILUPBiCGStab:  Solving for ILambda_0_0, Initial residual = 0.00819525, Final residual = 6.650012e-18, No Iterations 1
DILUPBiCGStab:  Solving for ILambda_1_0, Initial residual = 0.00459577, Final residual = 2.503489e-18, No Iterations 1
DILUPBiCGStab:  Solving for ILambda_2_0, Initial residual = 0.0006845658, Final residual = 3.356138e-19, No Iterations 1
DILUPBiCGStab:  Solving for ILambda_5_0, Initial residual = 0.0008561906, Final residual = 9.688555e-05, No Iterations 2
DILUPBiCGStab:  Solving for ILambda_6_0, Initial residual = 0.005886218, Final residual = 0.0003323637, No Iterations 2
DILUPBiCGStab:  Solving for ILambda_7_0, Initial residual = 0.007985048, Final residual = 0.0005615705, No Iterations 3
DILUPBiCGStab:  Solving for ILambda_8_0, Initial residual = 0.002065321, Final residual = 1.376484e-18, No Iterations 1
DILUPBiCGStab:  Solving for ILambda_9_0, Initial residual = 0.002538386, Final residual = 2.102067e-18, No Iterations 1
DILUPBiCGStab:  Solving for ILambda_10_0, Initial residual = 0.002046851, Final residual = 2.58998e-18, No Iterations 1
DILUPBiCGStab:  Solving for ILambda_11_0, Initial residual = 0.0013124, Final residual = 3.261686e-18, No Iterations 1
DILUPBiCGStab:  Solving for ILambda_12_0, Initial residual = 0.001310029, Final residual = 5.977014e-05, No Iterations 4
DILUPBiCGStab:  Solving for ILambda_13_0, Initial residual = 0.001988195, Final residual = 0.0001756261, No Iterations 6
DILUPBiCGStab:  Solving for ILambda_14_0, Initial residual = 0.002293427, Final residual = 0.0002137554, No Iterations 4
DILUPBiCGStab:  Solving for ILambda_15_0, Initial residual = 0.002564751, Final residual = 0.0001577977, No Iterations 4
Radiation solver iter: 12
DILUPBiCGStab:  Solving for ILambda_0_0, Initial residual = 0.007017944, Final residual = 6.713018e-18, No Iterations 1
DILUPBiCGStab:  Solving for ILambda_1_0, Initial residual = 0.003525469, Final residual = 1.68743e-18, No Iterations 1
DILUPBiCGStab:  Solving for ILambda_6_0, Initial residual = 0.004474015, Final residual = 0.0004201652, No Iterations 2
DILUPBiCGStab:  Solving for ILambda_7_0, Initial residual = 0.006936921, Final residual = 0.0005419512, No Iterations 3
DILUPBiCGStab:  Solving for ILambda_8_0, Initial residual = 0.001783664, Final residual = 1.266889e-18, No Iterations 1
DILUPBiCGStab:  Solving for ILambda_9_0, Initial residual = 0.002171496, Final residual = 1.801312e-18, No Iterations 1
DILUPBiCGStab:  Solving for ILambda_10_0, Initial residual = 0.001640225, Final residual = 2.092184e-18, No Iterations 1
DILUPBiCGStab:  Solving for ILambda_11_0, Initial residual = 0.0009882779, Final residual = 2.63136e-18, No Iterations 1
DILUPBiCGStab:  Solving for ILambda_12_0, Initial residual = 0.0009818412, Final residual = 3.635638e-05, No Iterations 4
DILUPBiCGStab:  Solving for ILambda_13_0, Initial residual = 0.001612114, Final residual = 8.403762e-05, No Iterations 7
DILUPBiCGStab:  Solving for ILambda_14_0, Initial residual = 0.001982285, Final residual = 0.0001185717, No Iterations 6
DILUPBiCGStab:  Solving for ILambda_15_0, Initial residual = 0.00219856, Final residual = 0.0002108782, No Iterations 3
Radiation solver iter: 13
DILUPBiCGStab:  Solving for ILambda_0_0, Initial residual = 0.005976395, Final residual = 5.093227e-18, No Iterations 1
DILUPBiCGStab:  Solving for ILambda_1_0, Initial residual = 0.002659451, Final residual = 1.294697e-18, No Iterations 1
DILUPBiCGStab:  Solving for ILambda_6_0, Initial residual = 0.003387469, Final residual = 0.0002939338, No Iterations 2
DILUPBiCGStab:  Solving for ILambda_7_0, Initial residual = 0.0059886, Final residual = 0.0005937826, No Iterations 2
DILUPBiCGStab:  Solving for ILambda_8_0, Initial residual = 0.001544057, Final residual = 1.048924e-18, No Iterations 1
DILUPBiCGStab:  Solving for ILambda_9_0, Initial residual = 0.001856771, Final residual = 1.563307e-18, No Iterations 1
DILUPBiCGStab:  Solving for ILambda_10_0, Initial residual = 0.001306074, Final residual = 1.580617e-18, No Iterations 1
DILUPBiCGStab:  Solving for ILambda_13_0, Initial residual = 0.001273387, Final residual = 0.0001006487, No Iterations 6
DILUPBiCGStab:  Solving for ILambda_14_0, Initial residual = 0.001721053, Final residual = 0.0001490281, No Iterations 6
DILUPBiCGStab:  Solving for ILambda_15_0, Initial residual = 0.00193378, Final residual = 0.0001277927, No Iterations 4
Radiation solver iter: 14
DILUPBiCGStab:  Solving for ILambda_0_0, Initial residual = 0.00505948, Final residual = 4.595549e-18, No Iterations 1
DILUPBiCGStab:  Solving for ILambda_1_0, Initial residual = 0.001976078, Final residual = 9.322581e-19, No Iterations 1
DILUPBiCGStab:  Solving for ILambda_6_0, Initial residual = 0.002518799, Final residual = 0.0001964091, No Iterations 2
DILUPBiCGStab:  Solving for ILambda_7_0, Initial residual = 0.005170063, Final residual = 0.0004846521, No Iterations 2
DILUPBiCGStab:  Solving for ILambda_8_0, Initial residual = 0.001340601, Final residual = 9.016144e-19, No Iterations 1
DILUPBiCGStab:  Solving for ILambda_9_0, Initial residual = 0.001579412, Final residual = 1.250914e-18, No Iterations 1
DILUPBiCGStab:  Solving for ILambda_10_0, Initial residual = 0.001034674, Final residual = 1.244238e-18, No Iterations 1
DILUPBiCGStab:  Solving for ILambda_13_0, Initial residual = 0.001004091, Final residual = 4.212874e-05, No Iterations 8
DILUPBiCGStab:  Solving for ILambda_14_0, Initial residual = 0.001471412, Final residual = 0.0001178394, No Iterations 5
DILUPBiCGStab:  Solving for ILambda_15_0, Initial residual = 0.001654003, Final residual = 0.0001347725, No Iterations 3
GAMG:  Solving for p_rgh, Initial residual = 0.6479425, Final residual = 0.002339696, No Iterations 3
limitVelocity limitU Limited 0 (0%) of cells, with max limit 8
time step continuity errors : sum local = 0.0008402426, global = -4.112566e-17, cumulative = 2.574169e-15
rho min/max : 0.5996949 1.008942
DILUPBiCGStab:  Solving for omega, Initial residual = 0.0007244734, Final residual = 2.177157e-05, No Iterations 1
DILUPBiCGStab:  Solving for k, Initial residual = 0.001728264, Final residual = 7.427234e-05, No Iterations 1
ExecutionTime = 1.05 s  ClockTime = 1 s

Time = 1003

DILUPBiCGStab:  Solving for h, Initial residual = 0.1748648, Final residual = 1.603631e-05, No Iterations 1
limitTemperature limitT Lower limited 0 (0%) of cells, with min limit 280
limitTemperature limitT Upper limited 0 (0%) of cells, with max limit 1200
limitTemperature limitT Unlimited Tmin 448.7337
limitTemperature limitT Unlimited Tmax 454.6956
GAMG:  Solving for p_rgh, Initial residual = 0.5385581, Final residual = 0.002967596, No Iterations 2
limitVelocity limitU Limited 0 (0%) of cells, with max limit 8
time step continuity errors : sum local = 0.001111629, global = -5.819279e-17, cumulative = 2.515977e-15
rho min/max : 0.6372564 1.005838
DILUPBiCGStab:  Solving for omega, Initial residual = 0.0007825579, Final residual = 2.24378e-05, No Iterations 1
DILUPBiCGStab:  Solving for k, Initial residual = 0.001769069, Final residual = 7.384205e-05, No Iterations 1
ExecutionTime = 1.07 s  ClockTime = 1 s

Time = 1004

DILUPBiCGStab:  Solving for h, Initial residual = 0.1124159, Final residual = 1.183701e-05, No Iterations 1
limitTemperature limitT Lower limited 0 (0%) of cells, with min limit 280
limitTemperature limitT Upper limited 0 (0%) of cells, with max limit 1200
limitTemperature limitT Unlimited Tmin 448.1406
limitTemperature limitT Unlimited Tmax 455.7703
GAMG:  Solving for p_rgh, Initial residual = 0.4757116, Final residual = 0.002010121, No Iterations 3
limitVelocity limitU Limited 0 (0%) of cells, with max limit 8
time step continuity errors : sum local = 0.0008707176, global = -1.636913e-17, cumulative = 2.499607e-15
rho min/max : 0.6785671 1.002989
DILUPBiCGStab:  Solving for omega, Initial residual = 0.0008418924, Final residual = 2.466759e-05, No Iterations 1
DILUPBiCGStab:  Solving for k, Initial residual = 0.001809532, Final residual = 7.456533e-05, No Iterations 1
ExecutionTime = 1.08 s  ClockTime = 1 s

Time = 1005

DILUPBiCGStab:  Solving for h, Initial residual = 0.07314684, Final residual = 8.937924e-06, No Iterations 1
limitTemperature limitT Lower limited 0 (0%) of cells, with min limit 280
limitTemperature limitT Upper limited 0 (0%) of cells, with max limit 1200
limitTemperature limitT Unlimited Tmin 447.5781
limitTemperature limitT Unlimited Tmax 456.0309
Radiation solver iter: 0
DILUPBiCGStab:  Solving for ILambda_0_0, Initial residual = 0.3378431, Final residual = 3.421345e-15, No Iterations 1
DILUPBiCGStab:  Solving for ILambda_1_0, Initial residual = 0.5521346, Final residual = 3.873916e-15, No Iterations 1
DILUPBiCGStab:  Solving for ILambda_2_0, Initial residual = 0.6743923, Final residual = 3.69688e-15, No Iterations 1
DILUPBiCGStab:  Solving for ILambda_3_0, Initial residual = 0.7616353, Final residual = 3.86745e-15, No Iterations 1
DILUPBiCGStab:  Solving for ILambda_4_0, Initial residual = 0.7613019, Final residual = 0.01282599, No Iterations 5
DILUPBiCGStab:  Solving for ILambda_5_0, Initial residual = 0.6745663, Final residual = 0.003449097, No Iterations 12
DILUPBiCGStab:  Solving for ILambda_6_0, Initial residual = 0.5512111, Final residual = 0.03922114, No Iterations 19
DILUPBiCGStab:  Solving for ILambda_7_0, Initial residual = 0.3531467, Final residual = 0.006945579, No Iterations 31
DILUPBiCGStab:  Solving for ILambda_8_0, Initial residual = 0.1769139, Final residual = 1.469024e-15, No Iterations 1
DILUPBiCGStab:  Solving for ILambda_9_0, Initial residual = 0.3225917, Final residual = 2.076782e-15, No Iterations 1
DILUPBiCGStab:  Solving for ILambda_10_0, Initial residual = 0.4588762, Final residual = 2.445725e-15, No Iterations 1
DILUPBiCGStab:  Solving for ILambda_11_0, Initial residual = 0.6033119, Final residual = 3.006463e-15, No Iterations 1
DILUPBiCGStab:  Solving for ILambda_12_0, Initial residual = 0.6047687, Final residual = 0.05483281, No Iterations 5
DILUPBiCGStab:  Solving for ILambda_13_0, Initial residual = 0.4626994, Final residual = 0.01805786, No Iterations 11
DILUPBiCGStab:  Solving for ILambda_14_0, Initial residual = 0.3278541, Final residual = 0.02158047, No Iterations 19
DILUPBiCGStab:  Solving for ILambda_15_0, Initial residual = 0.1895799, Final residual = 0.005358005, No Iterations 31
Radiation solver iter: 1
DILUPBiCGStab:  Solving for ILambda_0_0, Initial residual = 0.1385626, Final residual = 5.999093e-16, No Iterations 1
DILUPBiCGStab:  Solving for ILambda_1_0, Initial residual = 0.1546138, Final residual = 5.41592e-16, No Iterations 1
DILUPBiCGStab:  Solving for ILambda_2_0, Initial residual = 0.1884162, Final residual = 6.205698e-16, No Iterations 1
DILUPBiCGStab:  Solving for ILambda_3_0, Initial residual = 0.2206191, Final residual = 8.731428e-16, No Iterations 1
DILUPBiCGStab:  Solving for ILambda_4_0, Initial residual = 0.2858748, Final residual = 0.02758536, No Iterations 4
DILUPBiCGStab:  Solving for ILambda_5_0, Initial residual = 0.1809313, Final residual = 0.006479686, No Iterations 9
DILUPBiCGStab:  Solving for ILambda_6_0, Initial residual = 0.2102788, Final residual = 0.01434587, No Iterations 11
DILUPBiCGStab:  Solving for ILambda_7_0, Initial residual = 0.1018385, Final residual = 0.009953691, No Iterations 18
DILUPBiCGStab:  Solving for ILambda_8_0, Initial residual = 0.01455163, Final residual = 5.719971e-17, No Iterations 1
DILUPBiCGStab:  Solving for ILambda_9_0, Initial residual = 0.01855073, Final residual = 7.005301e-17, No Iterations 1
DILUPBiCGStab:  Solving for ILambda_10_0, Initial residual = 0.0262023, Final residual = 9.786979e-17, No Iterations 1
DILUPBiCGStab:  Solving for ILambda_11_0, Initial residual = 0.03954468, Final residual = 1.737072e-16, No Iterations 1
DILUPBiCGStab:  Solving for ILambda_12_0, Initial residual = 0.1308422, Final residual = 0.009007322, No Iterations 3
DILUPBiCGStab:  Solving for ILambda_13_0, Initial residual = 0.04907291, Final residual = 0.00451004, No Iterations 7
DILUPBiCGStab:  Solving for ILambda_14_0, Initial residual = 0.03968295, Final residual = 0.00259088, No Iterations 11
DILUPBiCGStab:  Solving for ILambda_15_0, Initial residual = 0.0168373, Final residual = 0.001644274, No Iterations 18
Radiation solver iter: 2
DILUPBiCGStab:  Solving for ILambda_0_0, Initial residual = 0.07860774, Final residual = 1.78019e-16, No Iterations 1
DILUPBiCGStab:  Solving for ILambda_1_0, Initial residual = 0.07643879, Final residual = 1.010463e-16, No Iterations 1
DILUPBiCGStab:  Solving for ILambda_2_0, Initial residual = 0.08098509, Final residual = 1.079922e-16, No Iterations 1
DILUPBiCGStab:  Solving for ILambda_3_0, Initial residual = 0.06162503, Final residual = 8.845149e-17, No Iterations 1
DILUPBiCGStab:  Solving for ILambda_4_0, Initial residual = 0.08156101, Final residual = 0.006408757, No Iterations 3
DILUPBiCGStab:  Solving for ILambda_5_0, Initial residual = 0.08734837, Final residual = 0.008605377, No Iterations 6
DILUPBiCGStab:  Solving for ILambda_6_0, Initial residual = 0.08660834, Final residual = 0.007609072, No Iterations 7
DILUPBiCGStab:  Solving for ILambda_7_0, Initial residual = 0.07126565, Final residual = 0.004172751, No Iterations 11
DILUPBiCGStab:  Solving for ILambda_8_0, Initial residual = 0.006461826, Final residual = 1.172438e-17, No Iterations 1
DILUPBiCGStab:  Solving for ILambda_9_0, Initial residual = 0.008754512, Final residual = 1.57711e-17, No Iterations 1
DILUPBiCGStab:  Solving for ILambda_10_0, Initial residual = 0.011963, Final residual = 2.583633e-17, No Iterations 1
DILUPBiCGStab:  Solving for ILambda_11_0, Initial residual = 0.01598945, Final residual = 5.006905e-17, No Iterations 1
DILUPBiCGStab:  Solving for ILambda_12_0, Initial residual = 0.02328831, Final residual = 0.002156186, No Iterations 3
DILUPBiCGStab:  Solving for ILambda_13_0, Initial residual = 0.0160238, Final residual = 0.0008099823, No Iterations 9
DILUPBiCGStab:  Solving for ILambda_14_0, Initial residual = 0.01210163, Final residual = 0.001135047, No Iterations 13
DILUPBiCGStab:  Solving for ILambda_15_0, Initial residual = 0.00917973, Final residual = 0.0008966033, No Iterations 14
Radiation solver iter: 3
DILUPBiCGStab:  Solving for ILambda_0_0, Initial residual = 0.06258524, Final residual = 1.15546e-16, No Iterations 1
DILUPBiCGStab:  Solving for ILambda_1_0, Initial residual = 0.05833197, Final residual = 6.151788e-17, No Iterations 1
DILUPBiCGStab:  Solving for ILambda_2_0, Initial residual = 0.05442795, Final residual = 4.486993e-17, No Iterations 1
DILUPBiCGStab:  Solving for ILambda_3_0, Initial residual = 0.02395972, Final residual = 2.123107e-17, No Iterations 1
DILUPBiCGStab:  Solving for ILambda_4_0, Initial residual = 0.02728998, Final residual = 0.001915493, No Iterations 2
DILUPBiCGStab:  Solving for ILambda_5_0, Initial residual = 0.0639673, Final residual = 0.005127677, No Iterations 4
DILUPBiCGStab:  Solving for ILambda_6_0, Initial residual = 0.06745595, Final residual = 0.006583721, No Iterations 4
DILUPBiCGStab:  Solving for ILambda_7_0, Initial residual = 0.05810568, Final residual = 0.005008078, No Iterations 7
DILUPBiCGStab:  Solving for ILambda_8_0, Initial residual = 0.005163751, Final residual = 7.113357e-18, No Iterations 1
DILUPBiCGStab:  Solving for ILambda_9_0, Initial residual = 0.007134012, Final residual = 1.084276e-17, No Iterations 1
DILUPBiCGStab:  Solving for ILambda_10_0, Initial residual = 0.009039346, Final residual = 1.68591e-17, No Iterations 1
DILUPBiCGStab:  Solving for ILambda_11_0, Initial residual = 0.01025859, Final residual = 2.871948e-17, No Iterations 1
DILUPBiCGStab:  Solving for ILambda_12_0, Initial residual = 0.01089796, Final residual = 0.0005785475, No Iterations 4
DILUPBiCGStab:  Solving for ILambda_13_0, Initial residual = 0.009546013, Final residual = 0.0007916081, No Iterations 7
DILUPBiCGStab:  Solving for ILambda_14_0, Initial residual = 0.008387767, Final residual = 0.0007551543, No Iterations 11
DILUPBiCGStab:  Solving for ILambda_15_0, Initial residual = 0.006595287, Final residual = 0.0006047209, No Iterations 9
Radiation solver iter: 4
DILUPBiCGStab:  Solving for ILambda_0_0, Initial residual = 0.05263137, Final residual = 9.500146e-17, No Iterations 1
DILUPBiCGStab:  Solving for ILambda_1_0, Initial residual = 0.04853634, Final residual = 4.267675e-17, No Iterations 1
DILUPBiCGStab:  Solving for ILambda_2_0, Initial residual = 0.03844354, Final residual = 2.665724e-17, No Iterations 1
DILUPBiCGStab:  Solving for ILambda_3_0, Initial residual = 0.01012425, Final residual = 7.17658e-18, No Iterations 1
DILUPBiCGStab:  Solving for ILambda_4_0, Initial residual = 0.01131695, Final residual = 0.001017518, No Iterations 2
DILUPBiCGStab:  Solving for ILambda_5_0, Initial residual = 0.04556835, Final residual = 0.003673194, No Iterations 3
DILUPBiCGStab:  Solving for ILambda_6_0, Initial residual = 0.05717573, Final residual = 0.00566666, No Iterations 3
DILUPBiCGStab:  Solving for ILambda_7_0, Initial residual = 0.05067334, Final residual = 0.00400141, No Iterations 5
DILUPBiCGStab:  Solving for ILambda_8_0, Initial residual = 0.0043206, Final residual = 5.070623e-18, No Iterations 1
DILUPBiCGStab:  Solving for ILambda_9_0, Initial residual = 0.006008487, Final residual = 8.587638e-18, No Iterations 1
DILUPBiCGStab:  Solving for ILambda_10_0, Initial residual = 0.00686788, Final residual = 1.167993e-17, No Iterations 1
DILUPBiCGStab:  Solving for ILambda_11_0, Initial residual = 0.006719919, Final residual = 1.895553e-17, No Iterations 1
DILUPBiCGStab:  Solving for ILambda_12_0, Initial residual = 0.006709446, Final residual = 0.0006077687, No Iterations 3
DILUPBiCGStab:  Solving for ILambda_13_0, Initial residual = 0.007380898, Final residual = 0.0004733349, No Iterations 8
DILUPBiCGStab:  Solving for ILambda_14_0, Initial residual = 0.006751848, Final residual = 0.0004204458, No Iterations 9
DILUPBiCGStab:  Solving for ILambda_15_0, Initial residual = 0.005514371, Final residual = 0.0004553111, No Iterations 9
Radiation solver iter: 5
DILUPBiCGStab:  Solving for ILambda_0_0, Initial residual = 0.04690106, Final residual = 6.060254e-17, No Iterations 1
DILUPBiCGStab:  Solving for ILambda_1_0, Initial residual = 0.04149743, Final residual = 3.147873e-17, No Iterations 1
DILUPBiCGStab:  Solving for ILambda_2_0, Initial residual = 0.02746347, Final residual = 1.869412e-17, No Iterations 1
DILUPBiCGStab:  Solving for ILambda_3_0, Initial residual = 0.003952368, Final residual = 3.510846e-18, No Iterations 1
DILUPBiCGStab:  Solving for ILambda_4_0, Initial residual = 0.004571915, Final residual = 0.0003875457, No Iterations 2
DILUPBiCGStab:  Solving for ILambda_5_0, Initial residual = 0.03280952, Final residual = 0.001390359, No Iterations 4
DILUPBiCGStab:  Solving for ILambda_6_0, Initial residual = 0.05006027, Final residual = 0.002448401, No Iterations 4
DILUPBiCGStab:  Solving for ILambda_7_0, Initial residual = 0.04660014, Final residual = 0.003667153, No Iterations 4
DILUPBiCGStab:  Solving for ILambda_8_0, Initial residual = 0.003751867, Final residual = 3.887535e-18, No Iterations 1
DILUPBiCGStab:  Solving for ILambda_9_0, Initial residual = 0.005116889, Final residual = 6.504241e-18, No Iterations 1
DILUPBiCGStab:  Solving for ILambda_10_0, Initial residual = 0.005199811, Final residual = 8.242799e-18, No Iterations 1
DILUPBiCGStab:  Solving for ILambda_11_0, Initial residual = 0.004641767, Final residual = 1.246161e-17, No Iterations 1
DILUPBiCGStab:  Solving for ILambda_12_0, Initial residual = 0.004674253, Final residual = 0.0002757685, No Iterations 4
DILUPBiCGStab:  Solving for ILambda_13_0, Initial residual = 0.005345489, Final residual = 0.0002021043, No Iterations 8
DILUPBiCGStab:  Solving for ILambda_14_0, Initial residual = 0.005668503, Final residual = 0.0003144561, No Iterations 9
DILUPBiCGStab:  Solving for ILambda_15_0, Initial residual = 0.004664986, Final residual = 0.0004234973, No Iterations 6
Radiation solver iter: 6
DILUPBiCGStab:  Solving for ILambda_0_0, Initial residual = 0.04198925, Final residual = 4.900797e-17, No Iterations 1
DILUPBiCGStab:  Solving for ILambda_1_0, Initial residual = 0.03530799, Final residual = 2.432551e-17, No Iterations 1
DILUPBiCGStab:  Solving for ILambda_2_0, Initial residual = 0.01921946, Final residual = 1.366124e-17, No Iterations 1
DILUPBiCGStab:  Solving for ILambda_3_0, Initial residual = 0.001549405, Final residual = 1.387501e-18, No Iterations 1
DILUPBiCGStab:  Solving for ILambda_4_0, Initial residual = 0.001815622, Final residual = 0.0001225166, No Iterations 2
DILUPBiCGStab:  Solving for ILambda_5_0, Initial residual = 0.02259128, Final residual = 0.001057913, No Iterations 4
DILUPBiCGStab:  Solving for ILambda_6_0, Initial residual = 0.0429275, Final residual = 0.00335134, No Iterations 3
DILUPBiCGStab:  Solving for ILambda_7_0, Initial residual = 0.04297597, Final residual = 0.003306538, No Iterations 4
DILUPBiCGStab:  Solving for ILambda_8_0, Initial residual = 0.003282651, Final residual = 3.118136e-18, No Iterations 1
DILUPBiCGStab:  Solving for ILambda_9_0, Initial residual = 0.00429315, Final residual = 5.120345e-18, No Iterations 1
DILUPBiCGStab:  Solving for ILambda_10_0, Initial residual = 0.00399015, Final residual = 6.132245e-18, No Iterations 1
DILUPBiCGStab:  Solving for ILambda_11_0, Initial residual = 0.003416026, Final residual = 9.238653e-18, No Iterations 1
DILUPBiCGStab:  Solving for ILambda_12_0, Initial residual = 0.003334374, Final residual = 0.000176889, No Iterations 4
DILUPBiCGStab:  Solving for ILambda_13_0, Initial residual = 0.003963886, Final residual = 0.0003954137, No Iterations 6
DILUPBiCGStab:  Solving for ILambda_14_0, Initial residual = 0.004579232, Final residual = 0.0003305623, No Iterations 7
DILUPBiCGStab:  Solving for ILambda_15_0, Initial residual = 0.004002851, Final residual = 0.000165353, No Iterations 7
Radiation solver iter: 7
DILUPBiCGStab:  Solving for ILambda_0_0, Initial residual = 0.03776852, Final residual = 4.016559e-17, No Iterations 1
DILUPBiCGStab:  Solving for ILambda_1_0, Initial residual = 0.02965781, Final residual = 1.801361e-17, No Iterations 1
DILUPBiCGStab:  Solving for ILambda_2_0, Initial residual = 0.01302139, Final residual = 7.81029e-18, No Iterations 1
DILUPBiCGStab:  Solving for ILambda_3_0, Initial residual = 0.0006235739, Final residual = 7.094516e-19, No Iterations 1
DILUPBiCGStab:  Solving for ILambda_4_0, Initial residual = 0.0007652352, Final residual = 7.95541e-05, No Iterations 2
DILUPBiCGStab:  Solving for ILambda_5_0, Initial residual = 0.01501345, Final residual = 0.0006761444, No Iterations 4
DILUPBiCGStab:  Solving for ILambda_6_0, Initial residual = 0.03655251, Final residual = 0.002950837, No Iterations 2
DILUPBiCGStab:  Solving for ILambda_7_0, Initial residual = 0.03976426, Final residual = 0.003088337, No Iterations 4
DILUPBiCGStab:  Solving for ILambda_8_0, Initial residual = 0.002849963, Final residual = 2.688983e-18, No Iterations 1
DILUPBiCGStab:  Solving for ILambda_9_0, Initial residual = 0.003579619, Final residual = 3.769257e-18, No Iterations 1
DILUPBiCGStab:  Solving for ILambda_10_0, Initial residual = 0.003205008, Final residual = 4.626686e-18, No Iterations 1
DILUPBiCGStab:  Solving for ILambda_11_0, Initial residual = 0.002739403, Final residual = 7.291285e-18, No Iterations 1
DILUPBiCGStab:  Solving for ILambda_12_0, Initial residual = 0.002710969, Final residual = 2.856152e-05, No Iterations 5
DILUPBiCGStab:  Solving for ILambda_13_0, Initial residual = 0.003296197, Final residual = 0.0002827579, No Iterations 6
DILUPBiCGStab:  Solving for ILambda_14_0, Initial residual = 0.003694507, Final residual = 0.0003550852, No Iterations 8
DILUPBiCGStab:  Solving for ILambda_15_0, Initial residual = 0.003368045, Final residual = 0.0002507712, No Iterations 6
Radiation solver iter: 8
DILUPBiCGStab:  Solving for ILambda_0_0, Initial residual = 0.03394767, Final residual = 3.314165e-17, No Iterations 1
DILUPBiCGStab:  Solving for ILambda_1_0, Initial residual = 0.02458815, Final residual = 1.479113e-17, No Iterations 1
DILUPBiCGStab:  Solving for ILambda_2_0, Initial residual = 0.008476466, Final residual = 5.710778e-18, No Iterations 1
DILUPBiCGStab:  Solving for ILambda_5_0, Initial residual = 0.009696403, Final residual = 0.0008131688, No Iterations 3
DILUPBiCGStab:  Solving for ILambda_6_0, Initial residual = 0.03064513, Final residual = 0.002330874, No Iterations 2
DILUPBiCGStab:  Solving for ILambda_7_0, Initial residual = 0.03653543, Final residual = 0.002577093, No Iterations 4
DILUPBiCGStab:  Solving for ILambda_8_0, Initial residual = 0.002463792, Final residual = 2.024678e-18, No Iterations 1
DILUPBiCGStab:  Solving for ILambda_9_0, Initial residual = 0.002994168, Final residual = 2.86325e-18, No Iterations 1
DILUPBiCGStab:  Solving for ILambda_10_0, Initial residual = 0.002687964, Final residual = 3.932263e-18, No Iterations 1
DILUPBiCGStab:  Solving for ILambda_11_0, Initial residual = 0.00226277, Final residual = 5.83967e-18, No Iterations 1
DILUPBiCGStab:  Solving for ILambda_12_0, Initial residual = 0.002252432, Final residual = 0.0001288618, No Iterations 4
DILUPBiCGStab:  Solving for ILambda_13_0, Initial residual = 0.002718912, Final residual = 0.000179191, No Iterations 7
DILUPBiCGStab:  Solving for ILambda_14_0, Initial residual = 0.003024742, Final residual = 0.0002124185, No Iterations 6
DILUPBiCGStab:  Solving for ILambda_15_0, Initial residual = 0.002902748, Final residual = 0.000192689, No Iterations 5
Radiation solver iter: 9
DILUPBiCGStab:  Solving for ILambda_0_0, Initial residual = 0.03033162, Final residual = 2.913672e-17, No Iterations 1
DILUPBiCGStab:  Solving for ILambda_1_0, Initial residual = 0.02000994, Final residual = 1.520318e-17, No Iterations 1
DILUPBiCGStab:  Solving for ILambda_2_0, Initial residual = 0.005339746, Final residual = 2.533846e-18, No Iterations 1
DILUPBiCGStab:  Solving for ILambda_5_0, Initial residual = 0.006083877, Final residual = 0.0005942562, No Iterations 2
DILUPBiCGStab:  Solving for ILambda_6_0, Initial residual = 0.02510251, Final residual = 0.001786139, No Iterations 2
DILUPBiCGStab:  Solving for ILambda_7_0, Initial residual = 0.03303793, Final residual = 0.002667151, No Iterations 3
DILUPBiCGStab:  Solving for ILambda_8_0, Initial residual = 0.002130065, Final residual = 1.582372e-18, No Iterations 1
DILUPBiCGStab:  Solving for ILambda_9_0, Initial residual = 0.002539084, Final residual = 2.286351e-18, No Iterations 1
DILUPBiCGStab:  Solving for ILambda_10_0, Initial residual = 0.002282123, Final residual = 2.978098e-18, No Iterations 1
DILUPBiCGStab:  Solving for ILambda_11_0, Initial residual = 0.001862559, Final residual = 4.793041e-18, No Iterations 1
DILUPBiCGStab:  Solving for ILambda_12_0, Initial residual = 0.001912055, Final residual = 8.340329e-05, No Iterations 4
DILUPBiCGStab:  Solving for ILambda_13_0, Initial residual = 0.002283754, Final residual = 0.0001484371, No Iterations 7
DILUPBiCGStab:  Solving for ILambda_14_0, Initial residual = 0.002474587, Final residual = 0.0002156513, No Iterations 6
DILUPBiCGStab:  Solving for ILambda_15_0, Initial residual = 0.002475274, Final residual = 0.0002189816, No Iterations 4
Radiation solver iter: 10
DILUPBiCGStab:  Solving for ILambda_0_0, Initial residual = 0.02695694, Final residual = 2.323223e-17, No Iterations 1
DILUPBiCGStab:  Solving for ILambda_1_0, Initial residual = 0.01601614, Final residual = 7.557285e-18, No Iterations 1
DILUPBiCGStab:  Solving for ILambda_2_0, Initial residual = 0.00322747, Final residual = 1.499816e-18, No Iterations 1
DILUPBiCGStab:  Solving for ILambda_5_0, Initial residual = 0.003678786, Final residual = 0.000295377, No Iterations 2
DILUPBiCGStab:  Solving for ILambda_6_0, Initial residual = 0.02008692, Final residual = 0.00129271, No Iterations 2
DILUPBiCGStab:  Solving for ILambda_7_0, Initial residual = 0.02969551, Final residual = 0.002414668, No Iterations 3
DILUPBiCGStab:  Solving for ILambda_8_0, Initial residual = 0.001838633, Final residual = 1.389307e-18, No Iterations 1
DILUPBiCGStab:  Solving for ILambda_9_0, Initial residual = 0.002169827, Final residual = 2.023414e-18, No Iterations 1
DILUPBiCGStab:  Solving for ILambda_10_0, Initial residual = 0.001919284, Final residual = 2.645488e-18, No Iterations 1
DILUPBiCGStab:  Solving for ILambda_11_0, Initial residual = 0.001507187, Final residual = 4.259888e-18, No Iterations 1
DILUPBiCGStab:  Solving for ILambda_12_0, Initial residual = 0.001536884, Final residual = 6.764336e-05, No Iterations 4
DILUPBiCGStab:  Solving for ILambda_13_0, Initial residual = 0.001947652, Final residual = 6.400043e-05, No Iterations 8
DILUPBiCGStab:  Solving for ILambda_14_0, Initial residual = 0.002103862, Final residual = 7.62707e-05, No Iterations 8
DILUPBiCGStab:  Solving for ILambda_15_0, Initial residual = 0.002142039, Final residual = 0.0001722095, No Iterations 5
Radiation solver iter: 11
DILUPBiCGStab:  Solving for ILambda_0_0, Initial residual = 0.0237696, Final residual = 2.080367e-17, No Iterations 1
DILUPBiCGStab:  Solving for ILambda_1_0, Initial residual = 0.01259423, Final residual = 6.961936e-18, No Iterations 1
DILUPBiCGStab:  Solving for ILambda_2_0, Initial residual = 0.001878525, Final residual = 9.494471e-19, No Iterations 1
DILUPBiCGStab:  Solving for ILambda_5_0, Initial residual = 0.002158628, Final residual = 0.0001702945, No Iterations 2
DILUPBiCGStab:  Solving for ILambda_6_0, Initial residual = 0.01570202, Final residual = 0.0008923632, No Iterations 2
DILUPBiCGStab:  Solving for ILambda_7_0, Initial residual = 0.02637104, Final residual = 0.001381688, No Iterations 4
DILUPBiCGStab:  Solving for ILambda_8_0, Initial residual = 0.001587516, Final residual = 1.339296e-18, No Iterations 1
DILUPBiCGStab:  Solving for ILambda_9_0, Initial residual = 0.001864869, Final residual = 1.640815e-18, No Iterations 1
DILUPBiCGStab:  Solving for ILambda_10_0, Initial residual = 0.001579178, Final residual = 2.196667e-18, No Iterations 1
DILUPBiCGStab:  Solving for ILambda_11_0, Initial residual = 0.00117791, Final residual = 3.083862e-18, No Iterations 1
DILUPBiCGStab:  Solving for ILambda_12_0, Initial residual = 0.001193875, Final residual = 4.493776e-05, No Iterations 4
DILUPBiCGStab:  Solving for ILambda_13_0, Initial residual = 0.001582093, Final residual = 0.0001573569, No Iterations 6
DILUPBiCGStab:  Solving for ILambda_14_0, Initial residual = 0.001782405, Final residual = 0.0001684768, No Iterations 6
[...]
GAMG:  Solving for p_rgh, Initial residual = 0.001285982, Final residual = 6.980868e-06, No Iterations 2
limitVelocity limitU Limited 0 (0%) of cells, with max limit 8
time step continuity errors : sum local = 2.326225e-05, global = -7.492037e-18, cumulative = 2.5788e-15
rho min/max : 0.7179059 0.9879544
DILUPBiCGStab:  Solving for omega, Initial residual = 0.0003467063, Final residual = 8.909071e-06, No Iterations 1
DILUPBiCGStab:  Solving for k, Initial residual = 0.0006049419, Final residual = 1.397077e-05, No Iterations 1
ExecutionTime = 18.2 s  ClockTime = 18 s

Time = 1390

DILUPBiCGStab:  Solving for h, Initial residual = 0.0004789116, Final residual = 1.659702e-07, No Iterations 1
limitTemperature limitT Lower limited 0 (0%) of cells, with min limit 280
limitTemperature limitT Upper limited 0 (0%) of cells, with max limit 1200
limitTemperature limitT Unlimited Tmin 416.1743
limitTemperature limitT Unlimited Tmax 466.7465
GAMG:  Solving for p_rgh, Initial residual = 0.002297547, Final residual = 7.272645e-06, No Iterations 2
limitVelocity limitU Limited 0 (0%) of cells, with max limit 8
time step continuity errors : sum local = 2.460884e-05, global = -1.37963e-17, cumulative = 2.565003e-15
rho min/max : 0.7179101 0.9879581
DILUPBiCGStab:  Solving for omega, Initial residual = 0.0003549687, Final residual = 1.229442e-05, No Iterations 1
DILUPBiCGStab:  Solving for k, Initial residual = 0.0006044981, Final residual = 1.387012e-05, No Iterations 1
ExecutionTime = 18.22 s  ClockTime = 18 s

Time = 1391

DILUPBiCGStab:  Solving for h, Initial residual = 0.0004779081, Final residual = 1.657174e-07, No Iterations 1
limitTemperature limitT Lower limited 0 (0%) of cells, with min limit 280
limitTemperature limitT Upper limited 0 (0%) of cells, with max limit 1200
limitTemperature limitT Unlimited Tmin 416.1593
limitTemperature limitT Unlimited Tmax 466.8167
GAMG:  Solving for p_rgh, Initial residual = 0.002084819, Final residual = 7.700168e-06, No Iterations 2
limitVelocity limitU Limited 0 (0%) of cells, with max limit 8
time step continuity errors : sum local = 2.543489e-05, global = -8.417407e-18, cumulative = 2.556586e-15
rho min/max : 0.7179471 0.9879615
DILUPBiCGStab:  Solving for omega, Initial residual = 0.0003521835, Final residual = 1.235424e-05, No Iterations 1
DILUPBiCGStab:  Solving for k, Initial residual = 0.0006031927, Final residual = 1.379901e-05, No Iterations 1
ExecutionTime = 18.23 s  ClockTime = 18 s

Time = 1392

DILUPBiCGStab:  Solving for h, Initial residual = 0.0004770027, Final residual = 1.65499e-07, No Iterations 1
limitTemperature limitT Lower limited 0 (0%) of cells, with min limit 280
limitTemperature limitT Upper limited 0 (0%) of cells, with max limit 1200
limitTemperature limitT Unlimited Tmin 416.1445
limitTemperature limitT Unlimited Tmax 466.8608
Radiation solver iter: 0
DILUPBiCGStab:  Solving for ILambda_0_0, Initial residual = 0.001315704, Final residual = 6.602335e-18, No Iterations 1
DILUPBiCGStab:  Solving for ILambda_1_0, Initial residual = 0.001233589, Final residual = 4.326801e-18, No Iterations 1
DILUPBiCGStab:  Solving for ILambda_2_0, Initial residual = 0.001237763, Final residual = 3.692675e-18, No Iterations 1
DILUPBiCGStab:  Solving for ILambda_3_0, Initial residual = 0.00116552, Final residual = 3.943041e-18, No Iterations 1
DILUPBiCGStab:  Solving for ILambda_4_0, Initial residual = 0.001216881, Final residual = 3.465704e-05, No Iterations 4
DILUPBiCGStab:  Solving for ILambda_5_0, Initial residual = 0.001252407, Final residual = 8.460799e-05, No Iterations 7
DILUPBiCGStab:  Solving for ILambda_6_0, Initial residual = 0.001126481, Final residual = 9.874348e-05, No Iterations 13
DILUPBiCGStab:  Solving for ILambda_7_0, Initial residual = 0.00107997, Final residual = 9.090253e-05, No Iterations 21
DILUPBiCGStab:  Solving for ILambda_8_0, Initial residual = 0.0001760613, Final residual = 4.373577e-19, No Iterations 1
DILUPBiCGStab:  Solving for ILambda_9_0, Initial residual = 0.0001911881, Final residual = 4.797777e-19, No Iterations 1
DILUPBiCGStab:  Solving for ILambda_10_0, Initial residual = 0.0002372289, Final residual = 6.727208e-19, No Iterations 1
DILUPBiCGStab:  Solving for ILambda_11_0, Initial residual = 0.0003263268, Final residual = 1.250936e-18, No Iterations 1
DILUPBiCGStab:  Solving for ILambda_12_0, Initial residual = 0.0006052332, Final residual = 6.578844e-05, No Iterations 3
DILUPBiCGStab:  Solving for ILambda_13_0, Initial residual = 0.0006403606, Final residual = 9.651848e-05, No Iterations 7
DILUPBiCGStab:  Solving for ILambda_14_0, Initial residual = 0.0006438153, Final residual = 9.008732e-05, No Iterations 11
DILUPBiCGStab:  Solving for ILambda_15_0, Initial residual = 0.0007793306, Final residual = 8.59794e-05, No Iterations 21
Radiation solver iter: 1
DILUPBiCGStab:  Solving for ILambda_0_0, Initial residual = 0.0004342648, Final residual = 8.105209e-19, No Iterations 1
DILUPBiCGStab:  Solving for ILambda_1_0, Initial residual = 0.00042753, Final residual = 7.172642e-19, No Iterations 1
DILUPBiCGStab:  Solving for ILambda_2_0, Initial residual = 0.0004125341, Final residual = 6.803402e-19, No Iterations 1
DILUPBiCGStab:  Solving for ILambda_3_0, Initial residual = 0.0003253799, Final residual = 7.278308e-19, No Iterations 1
DILUPBiCGStab:  Solving for ILambda_4_0, Initial residual = 0.0003628785, Final residual = 7.327053e-05, No Iterations 3
DILUPBiCGStab:  Solving for ILambda_5_0, Initial residual = 0.0005509218, Final residual = 9.006623e-05, No Iterations 7
DILUPBiCGStab:  Solving for ILambda_6_0, Initial residual = 0.0005885082, Final residual = 8.484241e-05, No Iterations 5
DILUPBiCGStab:  Solving for ILambda_7_0, Initial residual = 0.0006211639, Final residual = 9.268523e-05, No Iterations 5
GAMG:  Solving for p_rgh, Initial residual = 0.001899731, Final residual = 7.589087e-06, No Iterations 2
limitVelocity limitU Limited 0 (0%) of cells, with max limit 8
time step continuity errors : sum local = 2.493085e-05, global = 2.254564e-17, cumulative = 2.579132e-15
rho min/max : 0.7180824 0.9879647
DILUPBiCGStab:  Solving for omega, Initial residual = 0.0003357717, Final residual = 9.099106e-06, No Iterations 1
DILUPBiCGStab:  Solving for k, Initial residual = 0.0006030524, Final residual = 1.375016e-05, No Iterations 1
ExecutionTime = 18.32 s  ClockTime = 18 s

Time = 1393

DILUPBiCGStab:  Solving for h, Initial residual = 0.0004762154, Final residual = 1.653713e-07, No Iterations 1
limitTemperature limitT Lower limited 0 (0%) of cells, with min limit 280
limitTemperature limitT Upper limited 0 (0%) of cells, with max limit 1200
limitTemperature limitT Unlimited Tmin 416.1298
limitTemperature limitT Unlimited Tmax 466.8338
GAMG:  Solving for p_rgh, Initial residual = 0.001424088, Final residual = 7.156846e-06, No Iterations 2
limitVelocity limitU Limited 0 (0%) of cells, with max limit 8
time step continuity errors : sum local = 2.339703e-05, global = 8.254194e-19, cumulative = 2.579957e-15
rho min/max : 0.7182238 0.9879683
DILUPBiCGStab:  Solving for omega, Initial residual = 0.0003359921, Final residual = 8.254666e-06, No Iterations 1
DILUPBiCGStab:  Solving for k, Initial residual = 0.0006026223, Final residual = 1.379301e-05, No Iterations 1
ExecutionTime = 18.33 s  ClockTime = 18 s

Time = 1394

DILUPBiCGStab:  Solving for h, Initial residual = 0.0004753719, Final residual = 1.651962e-07, No Iterations 1
limitTemperature limitT Lower limited 0 (0%) of cells, with min limit 280
limitTemperature limitT Upper limited 0 (0%) of cells, with max limit 1200
limitTemperature limitT Unlimited Tmin 416.1152
limitTemperature limitT Unlimited Tmax 466.7615
GAMG:  Solving for p_rgh, Initial residual = 0.001008545, Final residual = 6.771787e-06, No Iterations 2
limitVelocity limitU Limited 0 (0%) of cells, with max limit 8
time step continuity errors : sum local = 2.205639e-05, global = 1.455761e-17, cumulative = 2.594515e-15
rho min/max : 0.7184092 0.9879716
DILUPBiCGStab:  Solving for omega, Initial residual = 0.0003292216, Final residual = 8.373834e-06, No Iterations 1
DILUPBiCGStab:  Solving for k, Initial residual = 0.0006031671, Final residual = 1.383528e-05, No Iterations 1
ExecutionTime = 18.35 s  ClockTime = 18 s

Time = 1395

DILUPBiCGStab:  Solving for h, Initial residual = 0.0004744086, Final residual = 1.649208e-07, No Iterations 1
limitTemperature limitT Lower limited 0 (0%) of cells, with min limit 280
limitTemperature limitT Upper limited 0 (0%) of cells, with max limit 1200
limitTemperature limitT Unlimited Tmin 416.1007
limitTemperature limitT Unlimited Tmax 466.6579
Radiation solver iter: 0
DILUPBiCGStab:  Solving for ILambda_0_0, Initial residual = 0.001340867, Final residual = 6.670898e-18, No Iterations 1
DILUPBiCGStab:  Solving for ILambda_1_0, Initial residual = 0.001272437, Final residual = 4.301721e-18, No Iterations 1
DILUPBiCGStab:  Solving for ILambda_2_0, Initial residual = 0.00130043, Final residual = 3.834063e-18, No Iterations 1
DILUPBiCGStab:  Solving for ILambda_3_0, Initial residual = 0.001271213, Final residual = 4.152831e-18, No Iterations 1
DILUPBiCGStab:  Solving for ILambda_4_0, Initial residual = 0.001261568, Final residual = 4.015775e-05, No Iterations 5
DILUPBiCGStab:  Solving for ILambda_5_0, Initial residual = 0.001237388, Final residual = 6.708883e-05, No Iterations 9
DILUPBiCGStab:  Solving for ILambda_6_0, Initial residual = 0.001184441, Final residual = 9.134005e-06, No Iterations 15
DILUPBiCGStab:  Solving for ILambda_7_0, Initial residual = 0.00117364, Final residual = 4.588196e-05, No Iterations 22
DILUPBiCGStab:  Solving for ILambda_8_0, Initial residual = 0.0001980083, Final residual = 4.42162e-19, No Iterations 1
DILUPBiCGStab:  Solving for ILambda_9_0, Initial residual = 0.000194334, Final residual = 4.627363e-19, No Iterations 1
DILUPBiCGStab:  Solving for ILambda_10_0, Initial residual = 0.000235046, Final residual = 6.888848e-19, No Iterations 1
DILUPBiCGStab:  Solving for ILambda_11_0, Initial residual = 0.0003221135, Final residual = 1.247811e-18, No Iterations 1
DILUPBiCGStab:  Solving for ILambda_12_0, Initial residual = 0.0005965045, Final residual = 6.465395e-05, No Iterations 3
DILUPBiCGStab:  Solving for ILambda_13_0, Initial residual = 0.0006382059, Final residual = 9.448885e-05, No Iterations 8
DILUPBiCGStab:  Solving for ILambda_14_0, Initial residual = 0.0006632916, Final residual = 8.78767e-05, No Iterations 13
DILUPBiCGStab:  Solving for ILambda_15_0, Initial residual = 0.000814307, Final residual = 4.174949e-05, No Iterations 19
Radiation solver iter: 1
DILUPBiCGStab:  Solving for ILambda_0_0, Initial residual = 0.0004625796, Final residual = 8.206778e-19, No Iterations 1
DILUPBiCGStab:  Solving for ILambda_1_0, Initial residual = 0.000458038, Final residual = 7.489802e-19, No Iterations 1
DILUPBiCGStab:  Solving for ILambda_2_0, Initial residual = 0.0004588223, Final residual = 7.168492e-19, No Iterations 1
DILUPBiCGStab:  Solving for ILambda_3_0, Initial residual = 0.000393554, Final residual = 8.648073e-19, No Iterations 1
DILUPBiCGStab:  Solving for ILambda_4_0, Initial residual = 0.0005464192, Final residual = 9.164278e-05, No Iterations 3
DILUPBiCGStab:  Solving for ILambda_5_0, Initial residual = 0.0006639881, Final residual = 8.575634e-05, No Iterations 6
DILUPBiCGStab:  Solving for ILambda_6_0, Initial residual = 0.0006817889, Final residual = 6.97208e-05, No Iterations 9
DILUPBiCGStab:  Solving for ILambda_7_0, Initial residual = 0.0007551899, Final residual = 8.78856e-05, No Iterations 9
GAMG:  Solving for p_rgh, Initial residual = 0.001949642, Final residual = 6.880531e-06, No Iterations 2
limitVelocity limitU Limited 0 (0%) of cells, with max limit 8
time step continuity errors : sum local = 2.256804e-05, global = 5.298511e-17, cumulative = 2.6475e-15
rho min/max : 0.7186057 0.9879746
DILUPBiCGStab:  Solving for omega, Initial residual = 0.0003385606, Final residual = 8.383846e-06, No Iterations 1
DILUPBiCGStab:  Solving for k, Initial residual = 0.0006020389, Final residual = 1.381124e-05, No Iterations 1
ExecutionTime = 18.44 s  ClockTime = 18 s

Time = 1396

DILUPBiCGStab:  Solving for h, Initial residual = 0.0004731909, Final residual = 1.643257e-07, No Iterations 1
limitTemperature limitT Lower limited 0 (0%) of cells, with min limit 280
limitTemperature limitT Upper limited 0 (0%) of cells, with max limit 1200
limitTemperature limitT Unlimited Tmin 416.0864
limitTemperature limitT Unlimited Tmax 466.5455
GAMG:  Solving for p_rgh, Initial residual = 0.002203765, Final residual = 7.202581e-06, No Iterations 2
limitVelocity limitU Limited 0 (0%) of cells, with max limit 8
time step continuity errors : sum local = 2.32873e-05, global = 5.348744e-18, cumulative = 2.652848e-15
rho min/max : 0.7185365 0.9879781
DILUPBiCGStab:  Solving for omega, Initial residual = 0.0003272259, Final residual = 8.287194e-06, No Iterations 1
DILUPBiCGStab:  Solving for k, Initial residual = 0.0005998361, Final residual = 1.360919e-05, No Iterations 1
ExecutionTime = 18.45 s  ClockTime = 18 s

Time = 1397

DILUPBiCGStab:  Solving for h, Initial residual = 0.0004721901, Final residual = 1.639816e-07, No Iterations 1
limitTemperature limitT Lower limited 0 (0%) of cells, with min limit 280
limitTemperature limitT Upper limited 0 (0%) of cells, with max limit 1200
limitTemperature limitT Unlimited Tmin 416.0723
limitTemperature limitT Unlimited Tmax 466.5206
GAMG:  Solving for p_rgh, Initial residual = 0.002249756, Final residual = 6.939374e-06, No Iterations 2
limitVelocity limitU Limited 0 (0%) of cells, with max limit 8
time step continuity errors : sum local = 2.240806e-05, global = -1.432475e-17, cumulative = 2.638524e-15
rho min/max : 0.7183755 0.9879813
DILUPBiCGStab:  Solving for omega, Initial residual = 0.0003365771, Final residual = 9.168386e-06, No Iterations 1
DILUPBiCGStab:  Solving for k, Initial residual = 0.0005997606, Final residual = 1.365011e-05, No Iterations 1
ExecutionTime = 18.46 s  ClockTime = 18 s

Time = 1398

DILUPBiCGStab:  Solving for h, Initial residual = 0.0004712856, Final residual = 1.637829e-07, No Iterations 1
limitTemperature limitT Lower limited 0 (0%) of cells, with min limit 280
limitTemperature limitT Upper limited 0 (0%) of cells, with max limit 1200
limitTemperature limitT Unlimited Tmin 416.0583
limitTemperature limitT Unlimited Tmax 466.5622
Radiation solver iter: 0
DILUPBiCGStab:  Solving for ILambda_0_0, Initial residual = 0.001322403, Final residual = 6.828403e-18, No Iterations 1
DILUPBiCGStab:  Solving for ILambda_1_0, Initial residual = 0.0012601, Final residual = 4.339855e-18, No Iterations 1
DILUPBiCGStab:  Solving for ILambda_2_0, Initial residual = 0.0012891, Final residual = 3.784253e-18, No Iterations 1
DILUPBiCGStab:  Solving for ILambda_3_0, Initial residual = 0.001246231, Final residual = 3.962158e-18, No Iterations 1
DILUPBiCGStab:  Solving for ILambda_4_0, Initial residual = 0.001295984, Final residual = 9.153178e-05, No Iterations 4
DILUPBiCGStab:  Solving for ILambda_5_0, Initial residual = 0.001251039, Final residual = 8.695032e-05, No Iterations 9
DILUPBiCGStab:  Solving for ILambda_6_0, Initial residual = 0.001164758, Final residual = 7.998342e-05, No Iterations 13
DILUPBiCGStab:  Solving for ILambda_7_0, Initial residual = 0.001151745, Final residual = 1.688467e-05, No Iterations 28
DILUPBiCGStab:  Solving for ILambda_8_0, Initial residual = 0.0001766939, Final residual = 4.723593e-19, No Iterations 1
DILUPBiCGStab:  Solving for ILambda_9_0, Initial residual = 0.0001985476, Final residual = 5.051953e-19, No Iterations 1
DILUPBiCGStab:  Solving for ILambda_10_0, Initial residual = 0.0002486126, Final residual = 7.451706e-19, No Iterations 1
DILUPBiCGStab:  Solving for ILambda_11_0, Initial residual = 0.0003424265, Final residual = 1.286872e-18, No Iterations 1
DILUPBiCGStab:  Solving for ILambda_12_0, Initial residual = 0.0006136489, Final residual = 6.715392e-05, No Iterations 3
DILUPBiCGStab:  Solving for ILambda_13_0, Initial residual = 0.0006602658, Final residual = 8.31026e-05, No Iterations 7
DILUPBiCGStab:  Solving for ILambda_14_0, Initial residual = 0.0006617115, Final residual = 8.173063e-05, No Iterations 10
DILUPBiCGStab:  Solving for ILambda_15_0, Initial residual = 0.0007725309, Final residual = 8.476316e-05, No Iterations 18
Radiation solver iter: 1
DILUPBiCGStab:  Solving for ILambda_0_0, Initial residual = 0.0004403275, Final residual = 7.918316e-19, No Iterations 1
DILUPBiCGStab:  Solving for ILambda_1_0, Initial residual = 0.0004350674, Final residual = 6.921502e-19, No Iterations 1
DILUPBiCGStab:  Solving for ILambda_2_0, Initial residual = 0.0004240855, Final residual = 6.680491e-19, No Iterations 1
DILUPBiCGStab:  Solving for ILambda_3_0, Initial residual = 0.000350598, Final residual = 7.415207e-19, No Iterations 1
DILUPBiCGStab:  Solving for ILambda_4_0, Initial residual = 0.0005122649, Final residual = 3.215655e-05, No Iterations 4
DILUPBiCGStab:  Solving for ILambda_5_0, Initial residual = 0.000578782, Final residual = 9.114182e-05, No Iterations 5
DILUPBiCGStab:  Solving for ILambda_6_0, Initial residual = 0.0006032321, Final residual = 9.581966e-05, No Iterations 7
DILUPBiCGStab:  Solving for ILambda_7_0, Initial residual = 0.0006512632, Final residual = 9.451022e-05, No Iterations 6
GAMG:  Solving for p_rgh, Initial residual = 0.00188717, Final residual = 6.706809e-06, No Iterations 2
limitVelocity limitU Limited 0 (0%) of cells, with max limit 8
time step continuity errors : sum local = 2.148554e-05, global = -1.88147e-17, cumulative = 2.619709e-15
rho min/max : 0.7181554 0.9879843
DILUPBiCGStab:  Solving for omega, Initial residual = 0.0003251617, Final residual = 8.573838e-06, No Iterations 1
DILUPBiCGStab:  Solving for k, Initial residual = 0.0006002491, Final residual = 1.367105e-05, No Iterations 1
ExecutionTime = 18.55 s  ClockTime = 18 s

Time = 1399

DILUPBiCGStab:  Solving for h, Initial residual = 0.000470517, Final residual = 1.636743e-07, No Iterations 1
limitTemperature limitT Lower limited 0 (0%) of cells, with min limit 280
limitTemperature limitT Upper limited 0 (0%) of cells, with max limit 1200
limitTemperature limitT Unlimited Tmin 416.0445
limitTemperature limitT Unlimited Tmax 466.6476
GAMG:  Solving for p_rgh, Initial residual = 0.001275807, Final residual = 6.632835e-06, No Iterations 2
limitVelocity limitU Limited 0 (0%) of cells, with max limit 8
time step continuity errors : sum local = 2.121729e-05, global = -2.119363e-17, cumulative = 2.598515e-15
rho min/max : 0.7179536 0.9879876
DILUPBiCGStab:  Solving for omega, Initial residual = 0.0003229097, Final residual = 8.132332e-06, No Iterations 1
DILUPBiCGStab:  Solving for k, Initial residual = 0.0005991563, Final residual = 1.370238e-05, No Iterations 1
ExecutionTime = 18.57 s  ClockTime = 18 s

Time = 1400

DILUPBiCGStab:  Solving for h, Initial residual = 0.0004694866, Final residual = 1.633288e-07, No Iterations 1
limitTemperature limitT Lower limited 0 (0%) of cells, with min limit 280
limitTemperature limitT Upper limited 0 (0%) of cells, with max limit 1200
limitTemperature limitT Unlimited Tmin 416.0308
limitTemperature limitT Unlimited Tmax 466.7974
GAMG:  Solving for p_rgh, Initial residual = 0.001316022, Final residual = 6.973176e-06, No Iterations 2
limitVelocity limitU Limited 0 (0%) of cells, with max limit 8
time step continuity errors : sum local = 2.220121e-05, global = 2.04232e-18, cumulative = 2.600558e-15
rho min/max : 0.7178167 0.9879908
DILUPBiCGStab:  Solving for omega, Initial residual = 0.0003245978, Final residual = 8.260513e-06, No Iterations 1
DILUPBiCGStab:  Solving for k, Initial residual = 0.0005984315, Final residual = 1.347622e-05, No Iterations 1
ExecutionTime = 18.58 s  ClockTime = 18 s

surfaceFieldValue wallT write:
    areaAverage(plate) of T = 473.4033

surfaceFieldValue wallTriser write:
    areaAverage(riser) of T = 361.2909

End

