/*---------------------------------------------------------------------------*\
| =========                 |                                                 |
| \\      /  F ield         | OpenFOAM: The Open Source CFD Toolbox           |
|  \\    /   O peration     | Version:  2312                                  |
|   \\  /    A nd           | Website:  www.openfoam.com                      |
|    \\/     M anipulation  |                                                 |
\*---------------------------------------------------------------------------*/
Build  : _c39a0f64-20231220 OPENFOAM=2312 version=2312
Arch   : "LSB;label=32;scalar=64"
Exec   : buoyantSimpleFoam
Date   : Jul 02 2026
Time   : 08:50:50
Host   : d9e578965bc8
PID    : 231
I/O    : uncollated
Case   : /case
nProcs : 1
trapFpe: Floating point exception trapping enabled (FOAM_SIGFPE).
fileModificationChecking : Monitoring run-time modified files using timeStampMaster (fileModificationSkew 5, maxFileModificationPolls 20)
allowSystemOperations : Allowing user-supplied system call operations

// * * * * * * * * * * * * * * * * * * * * * * * * * * * * * * * * * * * * * //
Create time

Create mesh for time = 3600


SIMPLE: convergence criteria
    field p_rgh	 tolerance 1e-05
    field U	 tolerance 1e-05
    field h	 tolerance 1e-05
    field "(k|omega)"	 tolerance 0.001

Reading thermophysical properties

Selecting thermodynamics package 
{
    type            heRhoThermo;
    mixture         pureMixture;
    transport       const;
    thermo          hConst;
    equationOfState perfectGas;
    specie          specie;
    energy          sensibleEnthalpy;
}

Reading field U

Reading/calculating face flux field phi

Creating turbulence model

Selecting turbulence model type RAS
Selecting RAS turbulence model kOmegaSST
Selecting patchDistMethod meshWave
RAS
{
    RASModel        kOmegaSST;
    turbulence      on;
    printCoeffs     on;
    alphaK1         0.85;
    alphaK2         1;
    alphaOmega1     0.5;
    alphaOmega2     0.856;
    gamma1          0.5555556;
    gamma2          0.44;
    beta1           0.075;
    beta2           0.0828;
    betaStar        0.09;
    a1              0.31;
    b1              1;
    c1              10;
    F3              false;
    decayControl    false;
    kInf            0;
    omegaInf        0;
}


Reading g

Reading hRef
Calculating field g.h

Reading field p_rgh

No MRF models present

Selecting radiationModel fvDOM
Selecting absorptionEmissionModel constantAbsorptionEmission
Selecting scatterModel none
Selecting sootModel none
fvDOM : Allocated 16 rays with average orientation:
	I0 : dAve : 	(0.1195698 0.6011177 2.944771e-33) : omega : 	0.7853982 : d : 	(0.1950903 0.9807853 6.123234e-17)
	I1 : dAve : 	(0.3405058 0.509603 2.944771e-33) : omega : 	0.7853982 : d : 	(0.5555702 0.8314696 6.123234e-17)
	I2 : dAve : 	(0.509603 0.3405058 2.944771e-33) : omega : 	0.7853982 : d : 	(0.8314696 0.5555702 6.123234e-17)
	I3 : dAve : 	(0.6011177 0.1195698 2.944771e-33) : omega : 	0.7853982 : d : 	(0.9807853 0.1950903 6.123234e-17)
	I4 : dAve : 	(0.6011177 -0.1195698 2.944771e-33) : omega : 	0.7853982 : d : 	(0.9807853 -0.1950903 6.123234e-17)
	I5 : dAve : 	(0.509603 -0.3405058 2.944771e-33) : omega : 	0.7853982 : d : 	(0.8314696 -0.5555702 6.123234e-17)
	I6 : dAve : 	(0.3405058 -0.509603 2.944771e-33) : omega : 	0.7853982 : d : 	(0.5555702 -0.8314696 6.123234e-17)
	I7 : dAve : 	(0.1195698 -0.6011177 2.944771e-33) : omega : 	0.7853982 : d : 	(0.1950903 -0.9807853 6.123234e-17)
	I8 : dAve : 	(-0.1195698 -0.6011177 2.944771e-33) : omega : 	0.7853982 : d : 	(-0.1950903 -0.9807853 6.123234e-17)
	I9 : dAve : 	(-0.3405058 -0.509603 2.944771e-33) : omega : 	0.7853982 : d : 	(-0.5555702 -0.8314696 6.123234e-17)
	I10 : dAve : 	(-0.509603 -0.3405058 2.944771e-33) : omega : 	0.7853982 : d : 	(-0.8314696 -0.5555702 6.123234e-17)
	I11 : dAve : 	(-0.6011177 -0.1195698 2.944771e-33) : omega : 	0.7853982 : d : 	(-0.9807853 -0.1950903 6.123234e-17)
	I12 : dAve : 	(-0.6011177 0.1195698 2.944771e-33) : omega : 	0.7853982 : d : 	(-0.9807853 0.1950903 6.123234e-17)
	I13 : dAve : 	(-0.509603 0.3405058 2.944771e-33) : omega : 	0.7853982 : d : 	(-0.8314696 0.5555702 6.123234e-17)
	I14 : dAve : 	(-0.3405058 0.509603 2.944771e-33) : omega : 	0.7853982 : d : 	(-0.5555702 0.8314696 6.123234e-17)
	I15 : dAve : 	(-0.1195698 0.6011177 2.944771e-33) : omega : 	0.7853982 : d : 	(-0.1950903 0.9807853 6.123234e-17)
Total omega : 12.56637

Creating finite volume options from "system/fvOptions"

Selecting finite volume options type limitTemperature
    Source: limitT
    - selecting all cells
    - selected 12000 cell(s) with volume 0.473422
Selecting finite volume options type limitVelocity
    Source: limitU
    - selecting all cells
    - selected 12000 cell(s) with volume 0.473422

Starting time loop

surfaceFieldValue wallT:
    operation     = areaAverage


surfaceFieldValue wallTriser:
    operation     = areaAverage


Time = 3601

DILUPBiCGStab:  Solving for h, Initial residual = 9.761302e-05, Final residual = 4.028178e-09, No Iterations 1
limitTemperature limitT Lower limited 0 (0%) of cells, with min limit 280
limitTemperature limitT Upper limited 0 (0%) of cells, with max limit 1200
limitTemperature limitT Unlimited Tmin 415.4275
limitTemperature limitT Unlimited Tmax 499.7795
Radiation solver iter: 0
Selecting boundary radiation Model: lookup
Selecting boundary radiation Model: lookup
Selecting boundary radiation Model: lookup
DILUPBiCGStab:  Solving for ILambda_0_0, Initial residual = 0.198637, Final residual = 2.013444e-15, No Iterations 1
DILUPBiCGStab:  Solving for ILambda_1_0, Initial residual = 0.3701154, Final residual = 2.702283e-15, No Iterations 1
DILUPBiCGStab:  Solving for ILambda_2_0, Initial residual = 0.5045403, Final residual = 3.059409e-15, No Iterations 1
DILUPBiCGStab:  Solving for ILambda_3_0, Initial residual = 0.6516143, Final residual = 3.876413e-15, No Iterations 1
DILUPBiCGStab:  Solving for ILambda_4_0, Initial residual = 0.6590418, Final residual = 0.0509307, No Iterations 4
DILUPBiCGStab:  Solving for ILambda_5_0, Initial residual = 0.519601, Final residual = 0.01403544, No Iterations 11
DILUPBiCGStab:  Solving for ILambda_6_0, Initial residual = 0.3885114, Final residual = 0.01348861, No Iterations 17
DILUPBiCGStab:  Solving for ILambda_7_0, Initial residual = 0.2303423, Final residual = 0.003238022, No Iterations 34
DILUPBiCGStab:  Solving for ILambda_8_0, Initial residual = 0.2311732, Final residual = 2.047777e-15, No Iterations 1
DILUPBiCGStab:  Solving for ILambda_9_0, Initial residual = 0.4004999, Final residual = 2.581616e-15, No Iterations 1
DILUPBiCGStab:  Solving for ILambda_10_0, Initial residual = 0.5470968, Final residual = 2.862266e-15, No Iterations 1
DILUPBiCGStab:  Solving for ILambda_11_0, Initial residual = 0.6749423, Final residual = 2.935116e-15, No Iterations 1
DILUPBiCGStab:  Solving for ILambda_12_0, Initial residual = 0.7236837, Final residual = 0.004126445, No Iterations 6
DILUPBiCGStab:  Solving for ILambda_13_0, Initial residual = 0.6649221, Final residual = 0.0008161754, No Iterations 13
DILUPBiCGStab:  Solving for ILambda_14_0, Initial residual = 0.5866907, Final residual = 0.01583297, No Iterations 17
DILUPBiCGStab:  Solving for ILambda_15_0, Initial residual = 0.465928, Final residual = 0.03876718, No Iterations 28
Radiation solver iter: 1
DILUPBiCGStab:  Solving for ILambda_0_0, Initial residual = 0.02894857, Final residual = 1.246632e-16, No Iterations 1
DILUPBiCGStab:  Solving for ILambda_1_0, Initial residual = 0.04020463, Final residual = 1.397585e-16, No Iterations 1
DILUPBiCGStab:  Solving for ILambda_2_0, Initial residual = 0.05617556, Final residual = 1.814757e-16, No Iterations 1
DILUPBiCGStab:  Solving for ILambda_3_0, Initial residual = 0.08305564, Final residual = 2.922283e-16, No Iterations 1
DILUPBiCGStab:  Solving for ILambda_4_0, Initial residual = 0.1975203, Final residual = 0.01046197, No Iterations 3
DILUPBiCGStab:  Solving for ILambda_5_0, Initial residual = 0.07364667, Final residual = 0.002199917, No Iterations 9
DILUPBiCGStab:  Solving for ILambda_6_0, Initial residual = 0.05378533, Final residual = 0.005377424, No Iterations 10
DILUPBiCGStab:  Solving for ILambda_7_0, Initial residual = 0.02864269, Final residual = 0.00137944, No Iterations 25
DILUPBiCGStab:  Solving for ILambda_8_0, Initial residual = 0.02505107, Final residual = 1.168838e-16, No Iterations 1
DILUPBiCGStab:  Solving for ILambda_9_0, Initial residual = 0.02947415, Final residual = 1.269312e-16, No Iterations 1
DILUPBiCGStab:  Solving for ILambda_10_0, Initial residual = 0.03436495, Final residual = 1.39386e-16, No Iterations 1
DILUPBiCGStab:  Solving for ILambda_11_0, Initial residual = 0.04036487, Final residual = 1.713836e-16, No Iterations 1
DILUPBiCGStab:  Solving for ILambda_12_0, Initial residual = 0.05224679, Final residual = 0.000593926, No Iterations 5
DILUPBiCGStab:  Solving for ILambda_13_0, Initial residual = 0.04449202, Final residual = 0.001905012, No Iterations 10
DILUPBiCGStab:  Solving for ILambda_14_0, Initial residual = 0.06004922, Final residual = 0.003601931, No Iterations 12
DILUPBiCGStab:  Solving for ILambda_15_0, Initial residual = 0.08865571, Final residual = 0.008418212, No Iterations 18
Radiation solver iter: 2
DILUPBiCGStab:  Solving for ILambda_0_0, Initial residual = 0.01332628, Final residual = 2.737525e-17, No Iterations 1
DILUPBiCGStab:  Solving for ILambda_1_0, Initial residual = 0.01793505, Final residual = 1.854248e-17, No Iterations 1
DILUPBiCGStab:  Solving for ILambda_2_0, Initial residual = 0.02457024, Final residual = 2.17676e-17, No Iterations 1
DILUPBiCGStab:  Solving for ILambda_3_0, Initial residual = 0.02677565, Final residual = 2.767223e-17, No Iterations 1
DILUPBiCGStab:  Solving for ILambda_4_0, Initial residual = 0.03447431, Final residual = 0.001993628, No Iterations 3
DILUPBiCGStab:  Solving for ILambda_5_0, Initial residual = 0.02737681, Final residual = 0.002196435, No Iterations 5
DILUPBiCGStab:  Solving for ILambda_6_0, Initial residual = 0.02413562, Final residual = 0.002200173, No Iterations 6
DILUPBiCGStab:  Solving for ILambda_7_0, Initial residual = 0.01616363, Final residual = 0.001365378, No Iterations 10
DILUPBiCGStab:  Solving for ILambda_8_0, Initial residual = 0.009563134, Final residual = 1.653477e-17, No Iterations 1
DILUPBiCGStab:  Solving for ILambda_9_0, Initial residual = 0.01148881, Final residual = 1.91735e-17, No Iterations 1
DILUPBiCGStab:  Solving for ILambda_10_0, Initial residual = 0.01268826, Final residual = 2.505764e-17, No Iterations 1
DILUPBiCGStab:  Solving for ILambda_11_0, Initial residual = 0.01239298, Final residual = 3.537861e-17, No Iterations 1
DILUPBiCGStab:  Solving for ILambda_12_0, Initial residual = 0.01381293, Final residual = 0.001373934, No Iterations 3
DILUPBiCGStab:  Solving for ILambda_13_0, Initial residual = 0.01764912, Final residual = 0.001761617, No Iterations 7
DILUPBiCGStab:  Solving for ILambda_14_0, Initial residual = 0.02049134, Final residual = 0.001354565, No Iterations 12
DILUPBiCGStab:  Solving for ILambda_15_0, Initial residual = 0.0311624, Final residual = 0.003051852, No Iterations 12
Radiation solver iter: 3
DILUPBiCGStab:  Solving for ILambda_0_0, Initial residual = 0.009857976, Final residual = 1.592718e-17, No Iterations 1
DILUPBiCGStab:  Solving for ILambda_1_0, Initial residual = 0.01299881, Final residual = 1.05932e-17, No Iterations 1
DILUPBiCGStab:  Solving for ILambda_2_0, Initial residual = 0.0154036, Final residual = 1.088126e-17, No Iterations 1
DILUPBiCGStab:  Solving for ILambda_3_0, Initial residual = 0.01197182, Final residual = 1.16402e-17, No Iterations 1
DILUPBiCGStab:  Solving for ILambda_4_0, Initial residual = 0.01461854, Final residual = 0.0008010571, No Iterations 2
DILUPBiCGStab:  Solving for ILambda_5_0, Initial residual = 0.01937506, Final residual = 0.001435462, No Iterations 4
DILUPBiCGStab:  Solving for ILambda_6_0, Initial residual = 0.01786239, Final residual = 0.001436447, No Iterations 4
DILUPBiCGStab:  Solving for ILambda_7_0, Initial residual = 0.01343459, Final residual = 0.001216305, No Iterations 6
DILUPBiCGStab:  Solving for ILambda_8_0, Initial residual = 0.007300174, Final residual = 1.088003e-17, No Iterations 1
DILUPBiCGStab:  Solving for ILambda_9_0, Initial residual = 0.009375833, Final residual = 1.263339e-17, No Iterations 1
DILUPBiCGStab:  Solving for ILambda_10_0, Initial residual = 0.01007306, Final residual = 1.626499e-17, No Iterations 1
DILUPBiCGStab:  Solving for ILambda_11_0, Initial residual = 0.00817779, Final residual = 2.176703e-17, No Iterations 1
DILUPBiCGStab:  Solving for ILambda_12_0, Initial residual = 0.009368091, Final residual = 0.0008793401, No Iterations 4
DILUPBiCGStab:  Solving for ILambda_13_0, Initial residual = 0.01353508, Final residual = 0.0004119073, No Iterations 9
DILUPBiCGStab:  Solving for ILambda_14_0, Initial residual = 0.01515208, Final residual = 0.0008400103, No Iterations 11
DILUPBiCGStab:  Solving for ILambda_15_0, Initial residual = 0.01950712, Final residual = 0.00172981, No Iterations 11
Radiation solver iter: 4
DILUPBiCGStab:  Solving for ILambda_0_0, Initial residual = 0.00776705, Final residual = 1.160002e-17, No Iterations 1
DILUPBiCGStab:  Solving for ILambda_1_0, Initial residual = 0.01010393, Final residual = 6.971961e-18, No Iterations 1
DILUPBiCGStab:  Solving for ILambda_2_0, Initial residual = 0.01023932, Final residual = 6.883198e-18, No Iterations 1
DILUPBiCGStab:  Solving for ILambda_3_0, Initial residual = 0.005266319, Final residual = 4.233833e-18, No Iterations 1
DILUPBiCGStab:  Solving for ILambda_4_0, Initial residual = 0.006029962, Final residual = 0.0004752528, No Iterations 2
DILUPBiCGStab:  Solving for ILambda_5_0, Initial residual = 0.01376641, Final residual = 0.001068412, No Iterations 3
DILUPBiCGStab:  Solving for ILambda_6_0, Initial residual = 0.01420725, Final residual = 0.001203801, No Iterations 3
DILUPBiCGStab:  Solving for ILambda_7_0, Initial residual = 0.01155815, Final residual = 0.00103356, No Iterations 5
DILUPBiCGStab:  Solving for ILambda_8_0, Initial residual = 0.006140284, Final residual = 7.622333e-18, No Iterations 1
DILUPBiCGStab:  Solving for ILambda_9_0, Initial residual = 0.008012477, Final residual = 9.457453e-18, No Iterations 1
DILUPBiCGStab:  Solving for ILambda_10_0, Initial residual = 0.0079823, Final residual = 1.212882e-17, No Iterations 1
DILUPBiCGStab:  Solving for ILambda_11_0, Initial residual = 0.005528201, Final residual = 1.365053e-17, No Iterations 1
DILUPBiCGStab:  Solving for ILambda_12_0, Initial residual = 0.00593773, Final residual = 0.0003708563, No Iterations 4
DILUPBiCGStab:  Solving for ILambda_13_0, Initial residual = 0.009691336, Final residual = 0.0006615321, No Iterations 8
DILUPBiCGStab:  Solving for ILambda_14_0, Initial residual = 0.01265402, Final residual = 0.0008148517, No Iterations 9
DILUPBiCGStab:  Solving for ILambda_15_0, Initial residual = 0.01596452, Final residual = 0.001541045, No Iterations 8
Radiation solver iter: 5
DILUPBiCGStab:  Solving for ILambda_0_0, Initial residual = 0.006541043, Final residual = 8.584405e-18, No Iterations 1
DILUPBiCGStab:  Solving for ILambda_1_0, Initial residual = 0.008057428, Final residual = 5.967764e-18, No Iterations 1
DILUPBiCGStab:  Solving for ILambda_2_0, Initial residual = 0.006913207, Final residual = 4.489422e-18, No Iterations 1
DILUPBiCGStab:  Solving for ILambda_3_0, Initial residual = 0.002170677, Final residual = 1.555966e-18, No Iterations 1
DILUPBiCGStab:  Solving for ILambda_4_0, Initial residual = 0.002486588, Final residual = 0.0001821167, No Iterations 2
DILUPBiCGStab:  Solving for ILambda_5_0, Initial residual = 0.009604472, Final residual = 0.0009463663, No Iterations 3
DILUPBiCGStab:  Solving for ILambda_6_0, Initial residual = 0.01138535, Final residual = 0.0009211403, No Iterations 3
DILUPBiCGStab:  Solving for ILambda_7_0, Initial residual = 0.009942731, Final residual = 0.0009356222, No Iterations 4
DILUPBiCGStab:  Solving for ILambda_8_0, Initial residual = 0.005218937, Final residual = 5.419156e-18, No Iterations 1
DILUPBiCGStab:  Solving for ILambda_9_0, Initial residual = 0.006633281, Final residual = 7.096388e-18, No Iterations 1
DILUPBiCGStab:  Solving for ILambda_10_0, Initial residual = 0.006064707, Final residual = 8.234947e-18, No Iterations 1
DILUPBiCGStab:  Solving for ILambda_11_0, Initial residual = 0.003669768, Final residual = 9.173341e-18, No Iterations 1
DILUPBiCGStab:  Solving for ILambda_12_0, Initial residual = 0.003929354, Final residual = 0.000359527, No Iterations 4
DILUPBiCGStab:  Solving for ILambda_13_0, Initial residual = 0.007087201, Final residual = 0.0005773159, No Iterations 6
DILUPBiCGStab:  Solving for ILambda_14_0, Initial residual = 0.01067314, Final residual = 0.0004852097, No Iterations 10
DILUPBiCGStab:  Solving for ILambda_15_0, Initial residual = 0.01353684, Final residual = 0.001220736, No Iterations 6
Radiation solver iter: 6
DILUPBiCGStab:  Solving for ILambda_0_0, Initial residual = 0.005561625, Final residual = 6.694909e-18, No Iterations 1
DILUPBiCGStab:  Solving for ILambda_1_0, Initial residual = 0.006418486, Final residual = 4.091387e-18, No Iterations 1
DILUPBiCGStab:  Solving for ILambda_2_0, Initial residual = 0.004723528, Final residual = 3.218588e-18, No Iterations 1
DILUPBiCGStab:  Solving for ILambda_3_0, Initial residual = 0.000837553, Final residual = 5.261645e-19, No Iterations 1
DILUPBiCGStab:  Solving for ILambda_4_0, Initial residual = 0.0009675741, Final residual = 7.77084e-05, No Iterations 2
DILUPBiCGStab:  Solving for ILambda_5_0, Initial residual = 0.006493556, Final residual = 0.0004049254, No Iterations 3
DILUPBiCGStab:  Solving for ILambda_6_0, Initial residual = 0.009173921, Final residual = 0.0006665404, No Iterations 4
DILUPBiCGStab:  Solving for ILambda_7_0, Initial residual = 0.008594794, Final residual = 0.0006476987, No Iterations 5
DILUPBiCGStab:  Solving for ILambda_8_0, Initial residual = 0.004442409, Final residual = 4.517507e-18, No Iterations 1
DILUPBiCGStab:  Solving for ILambda_9_0, Initial residual = 0.005532849, Final residual = 5.611081e-18, No Iterations 1
DILUPBiCGStab:  Solving for ILambda_10_0, Initial residual = 0.004732256, Final residual = 6.090376e-18, No Iterations 1
DILUPBiCGStab:  Solving for ILambda_11_0, Initial residual = 0.002720081, Final residual = 6.754125e-18, No Iterations 1
DILUPBiCGStab:  Solving for ILambda_12_0, Initial residual = 0.00299411, Final residual = 0.0001438114, No Iterations 4
DILUPBiCGStab:  Solving for ILambda_13_0, Initial residual = 0.005629724, Final residual = 0.000421246, No Iterations 7
DILUPBiCGStab:  Solving for ILambda_14_0, Initial residual = 0.008616564, Final residual = 0.0008011193, No Iterations 6
DILUPBiCGStab:  Solving for ILambda_15_0, Initial residual = 0.01142195, Final residual = 0.001011277, No Iterations 6
Radiation solver iter: 7
DILUPBiCGStab:  Solving for ILambda_0_0, Initial residual = 0.004791529, Final residual = 5.32932e-18, No Iterations 1
DILUPBiCGStab:  Solving for ILambda_1_0, Initial residual = 0.005093524, Final residual = 3.150486e-18, No Iterations 1
DILUPBiCGStab:  Solving for ILambda_2_0, Initial residual = 0.003217982, Final residual = 1.745186e-18, No Iterations 1
DILUPBiCGStab:  Solving for ILambda_5_0, Initial residual = 0.004158312, Final residual = 0.0004051393, No Iterations 2
DILUPBiCGStab:  Solving for ILambda_6_0, Initial residual = 0.007270731, Final residual = 0.0007042617, No Iterations 2
DILUPBiCGStab:  Solving for ILambda_7_0, Initial residual = 0.007345282, Final residual = 0.0004354494, No Iterations 5
DILUPBiCGStab:  Solving for ILambda_8_0, Initial residual = 0.003795695, Final residual = 3.629631e-18, No Iterations 1
DILUPBiCGStab:  Solving for ILambda_9_0, Initial residual = 0.004581676, Final residual = 4.547653e-18, No Iterations 1
DILUPBiCGStab:  Solving for ILambda_10_0, Initial residual = 0.003661041, Final residual = 4.778112e-18, No Iterations 1
DILUPBiCGStab:  Solving for ILambda_11_0, Initial residual = 0.002048616, Final residual = 5.138722e-18, No Iterations 1
DILUPBiCGStab:  Solving for ILambda_12_0, Initial residual = 0.002221246, Final residual = 0.0001498256, No Iterations 4
DILUPBiCGStab:  Solving for ILambda_13_0, Initial residual = 0.004260751, Final residual = 0.0003409279, No Iterations 6
DILUPBiCGStab:  Solving for ILambda_14_0, Initial residual = 0.007015211, Final residual = 0.0006434939, No Iterations 6
DILUPBiCGStab:  Solving for ILambda_15_0, Initial residual = 0.009742844, Final residual = 0.0002684062, No Iterations 8
Radiation solver iter: 8
DILUPBiCGStab:  Solving for ILambda_0_0, Initial residual = 0.004129817, Final residual = 3.902389e-18, No Iterations 1
DILUPBiCGStab:  Solving for ILambda_1_0, Initial residual = 0.003994401, Final residual = 2.097564e-18, No Iterations 1
DILUPBiCGStab:  Solving for ILambda_2_0, Initial residual = 0.002172613, Final residual = 1.417818e-18, No Iterations 1
DILUPBiCGStab:  Solving for ILambda_5_0, Initial residual = 0.002604322, Final residual = 0.0002310895, No Iterations 2
DILUPBiCGStab:  Solving for ILambda_6_0, Initial residual = 0.00573649, Final residual = 0.0004926177, No Iterations 2
DILUPBiCGStab:  Solving for ILambda_7_0, Initial residual = 0.00630134, Final residual = 0.0005402376, No Iterations 3
DILUPBiCGStab:  Solving for ILambda_8_0, Initial residual = 0.003258393, Final residual = 2.902966e-18, No Iterations 1
DILUPBiCGStab:  Solving for ILambda_9_0, Initial residual = 0.003890288, Final residual = 3.403662e-18, No Iterations 1
DILUPBiCGStab:  Solving for ILambda_10_0, Initial residual = 0.002931143, Final residual = 3.8768e-18, No Iterations 1
DILUPBiCGStab:  Solving for ILambda_11_0, Initial residual = 0.00162874, Final residual = 4.089569e-18, No Iterations 1
DILUPBiCGStab:  Solving for ILambda_12_0, Initial residual = 0.001789546, Final residual = 0.0001021064, No Iterations 4
DILUPBiCGStab:  Solving for ILambda_13_0, Initial residual = 0.003516355, Final residual = 0.000179211, No Iterations 8
DILUPBiCGStab:  Solving for ILambda_14_0, Initial residual = 0.005693425, Final residual = 0.0005362432, No Iterations 7
DILUPBiCGStab:  Solving for ILambda_15_0, Initial residual = 0.00806741, Final residual = 0.000760519, No Iterations 4
Radiation solver iter: 9
DILUPBiCGStab:  Solving for ILambda_0_0, Initial residual = 0.00354885, Final residual = 3.156847e-18, No Iterations 1
DILUPBiCGStab:  Solving for ILambda_1_0, Initial residual = 0.003094522, Final residual = 1.654395e-18, No Iterations 1
DILUPBiCGStab:  Solving for ILambda_2_0, Initial residual = 0.001434429, Final residual = 6.029095e-19, No Iterations 1
DILUPBiCGStab:  Solving for ILambda_5_0, Initial residual = 0.00158392, Final residual = 0.0001223664, No Iterations 2
DILUPBiCGStab:  Solving for ILambda_6_0, Initial residual = 0.004480699, Final residual = 0.0003291151, No Iterations 2
DILUPBiCGStab:  Solving for ILambda_7_0, Initial residual = 0.005448299, Final residual = 0.0002948888, No Iterations 4
DILUPBiCGStab:  Solving for ILambda_8_0, Initial residual = 0.002804488, Final residual = 2.201091e-18, No Iterations 1
DILUPBiCGStab:  Solving for ILambda_9_0, Initial residual = 0.00338957, Final residual = 2.862522e-18, No Iterations 1
DILUPBiCGStab:  Solving for ILambda_10_0, Initial residual = 0.002399228, Final residual = 2.867657e-18, No Iterations 1
DILUPBiCGStab:  Solving for ILambda_11_0, Initial residual = 0.001322464, Final residual = 3.373243e-18, No Iterations 1
DILUPBiCGStab:  Solving for ILambda_12_0, Initial residual = 0.001454292, Final residual = 8.884145e-05, No Iterations 4
DILUPBiCGStab:  Solving for ILambda_13_0, Initial residual = 0.00282748, Final residual = 0.0002409419, No Iterations 6
DILUPBiCGStab:  Solving for ILambda_14_0, Initial residual = 0.004594891, Final residual = 7.787796e-05, No Iterations 10
DILUPBiCGStab:  Solving for ILambda_15_0, Initial residual = 0.006971724, Final residual = 0.0004010355, No Iterations 5
Radiation solver iter: 10
DILUPBiCGStab:  Solving for ILambda_0_0, Initial residual = 0.003053193, Final residual = 2.832071e-18, No Iterations 1
DILUPBiCGStab:  Solving for ILambda_1_0, Initial residual = 0.002360812, Final residual = 1.243803e-18, No Iterations 1
DILUPBiCGStab:  Solving for ILambda_2_0, Initial residual = 0.0009141834, Final residual = 3.683428e-19, No Iterations 1
DILUPBiCGStab:  Solving for ILambda_5_0, Initial residual = 0.0009293248, Final residual = 6.680546e-05, No Iterations 2
DILUPBiCGStab:  Solving for ILambda_6_0, Initial residual = 0.003442475, Final residual = 0.0002226686, No Iterations 2
DILUPBiCGStab:  Solving for ILambda_7_0, Initial residual = 0.004636944, Final residual = 0.0003358589, No Iterations 3
DILUPBiCGStab:  Solving for ILambda_8_0, Initial residual = 0.002434667, Final residual = 1.937807e-18, No Iterations 1
DILUPBiCGStab:  Solving for ILambda_9_0, Initial residual = 0.00297437, Final residual = 2.479907e-18, No Iterations 1
DILUPBiCGStab:  Solving for ILambda_10_0, Initial residual = 0.001966995, Final residual = 2.489062e-18, No Iterations 1
DILUPBiCGStab:  Solving for ILambda_11_0, Initial residual = 0.001070353, Final residual = 2.699593e-18, No Iterations 1
DILUPBiCGStab:  Solving for ILambda_12_0, Initial residual = 0.001199566, Final residual = 6.460484e-05, No Iterations 4
DILUPBiCGStab:  Solving for ILambda_13_0, Initial residual = 0.002388556, Final residual = 0.0001881133, No Iterations 8
DILUPBiCGStab:  Solving for ILambda_14_0, Initial residual = 0.003777331, Final residual = 0.0003249729, No Iterations 4
DILUPBiCGStab:  Solving for ILambda_15_0, Initial residual = 0.005858171, Final residual = 0.0005699809, No Iterations 5
Radiation solver iter: 11
DILUPBiCGStab:  Solving for ILambda_0_0, Initial residual = 0.00261673, Final residual = 2.141652e-18, No Iterations 1
DILUPBiCGStab:  Solving for ILambda_1_0, Initial residual = 0.001779081, Final residual = 7.835782e-19, No Iterations 1
DILUPBiCGStab:  Solving for ILambda_6_0, Initial residual = 0.002611557, Final residual = 0.0001457037, No Iterations 2
DILUPBiCGStab:  Solving for ILambda_7_0, Initial residual = 0.003975385, Final residual = 0.0001820211, No Iterations 4
DILUPBiCGStab:  Solving for ILambda_8_0, Initial residual = 0.00211307, Final residual = 1.624338e-18, No Iterations 1
DILUPBiCGStab:  Solving for ILambda_9_0, Initial residual = 0.002557615, Final residual = 1.953318e-18, No Iterations 1
DILUPBiCGStab:  Solving for ILambda_10_0, Initial residual = 0.001544998, Final residual = 1.993811e-18, No Iterations 1
DILUPBiCGStab:  Solving for ILambda_11_0, Initial residual = 0.0007987688, Final residual = 2.033736e-18, No Iterations 1
DILUPBiCGStab:  Solving for ILambda_12_0, Initial residual = 0.0009088812, Final residual = 4.841022e-05, No Iterations 4
DILUPBiCGStab:  Solving for ILambda_13_0, Initial residual = 0.001865231, Final residual = 3.62908e-05, No Iterations 9
DILUPBiCGStab:  Solving for ILambda_14_0, Initial residual = 0.003242084, Final residual = 0.0002106292, No Iterations 6
DILUPBiCGStab:  Solving for ILambda_15_0, Initial residual = 0.005010148, Final residual = 0.0001319751, No Iterations 6
Radiation solver iter: 12
DILUPBiCGStab:  Solving for ILambda_0_0, Initial residual = 0.002240313, Final residual = 1.701149e-18, No Iterations 1
DILUPBiCGStab:  Solving for ILambda_1_0, Initial residual = 0.001323126, Final residual = 5.875817e-19, No Iterations 1
DILUPBiCGStab:  Solving for ILambda_6_0, Initial residual = 0.001952495, Final residual = 0.0001791117, No Iterations 2
DILUPBiCGStab:  Solving for ILambda_7_0, Initial residual = 0.003365052, Final residual = 0.0002530863, No Iterations 2
DILUPBiCGStab:  Solving for ILambda_8_0, Initial residual = 0.001841881, Final residual = 1.357042e-18, No Iterations 1
DILUPBiCGStab:  Solving for ILambda_9_0, Initial residual = 0.002181865, Final residual = 1.640581e-18, No Iterations 1
DILUPBiCGStab:  Solving for ILambda_10_0, Initial residual = 0.001206999, Final residual = 1.449028e-18, No Iterations 1
DILUPBiCGStab:  Solving for ILambda_13_0, Initial residual = 0.001468273, Final residual = 6.518797e-05, No Iterations 8
DILUPBiCGStab:  Solving for ILambda_14_0, Initial residual = 0.00279891, Final residual = 0.0002276375, No Iterations 6
DILUPBiCGStab:  Solving for ILambda_15_0, Initial residual = 0.004199129, Final residual = 0.0003793283, No Iterations 3
Radiation solver iter: 13
DILUPBiCGStab:  Solving for ILambda_0_0, Initial residual = 0.001907386, Final residual = 1.37459e-18, No Iterations 1
DILUPBiCGStab:  Solving for ILambda_1_0, Initial residual = 0.0009716579, Final residual = 3.772072e-19, No Iterations 1
DILUPBiCGStab:  Solving for ILambda_6_0, Initial residual = 0.001454543, Final residual = 0.0001236131, No Iterations 2
DILUPBiCGStab:  Solving for ILambda_7_0, Initial residual = 0.002874122, Final residual = 0.0002551337, No Iterations 2
DILUPBiCGStab:  Solving for ILambda_8_0, Initial residual = 0.00161057, Final residual = 1.174231e-18, No Iterations 1
DILUPBiCGStab:  Solving for ILambda_9_0, Initial residual = 0.001841656, Final residual = 1.335425e-18, No Iterations 1
DILUPBiCGStab:  Solving for ILambda_10_0, Initial residual = 0.0009394063, Final residual = 1.241658e-18, No Iterations 1
DILUPBiCGStab:  Solving for ILambda_13_0, Initial residual = 0.001161962, Final residual = 0.0001156261, No Iterations 6
DILUPBiCGStab:  Solving for ILambda_14_0, Initial residual = 0.002367301, Final residual = 0.0002005959, No Iterations 5
DILUPBiCGStab:  Solving for ILambda_15_0, Initial residual = 0.003652099, Final residual = 0.0002218459, No Iterations 4
Radiation solver iter: 14
DILUPBiCGStab:  Solving for ILambda_0_0, Initial residual = 0.001619493, Final residual = 1.140815e-18, No Iterations 1
DILUPBiCGStab:  Solving for ILambda_6_0, Initial residual = 0.001075174, Final residual = 8.255434e-05, No Iterations 2
DILUPBiCGStab:  Solving for ILambda_7_0, Initial residual = 0.002459533, Final residual = 0.0002291989, No Iterations 2
DILUPBiCGStab:  Solving for ILambda_8_0, Initial residual = 0.00139965, Final residual = 1.026135e-18, No Iterations 1
DILUPBiCGStab:  Solving for ILambda_9_0, Initial residual = 0.001524549, Final residual = 1.126054e-18, No Iterations 1
DILUPBiCGStab:  Solving for ILambda_13_0, Initial residual = 0.0009076158, Final residual = 8.801964e-05, No Iterations 6
DILUPBiCGStab:  Solving for ILambda_14_0, Initial residual = 0.001971111, Final residual = 0.0001829143, No Iterations 4
DILUPBiCGStab:  Solving for ILambda_15_0, Initial residual = 0.003080737, Final residual = 0.0002321983, No Iterations 3
GAMG:  Solving for p_rgh, Initial residual = 0.03905733, Final residual = 6.442257e-05, No Iterations 2
limitVelocity limitU Limited 0 (0%) of cells, with max limit 5
time step continuity errors : sum local = 0.0003718473, global = 4.460135e-17, cumulative = 1.4083e-15
rho min/max : 0.5304972 0.9565804
DILUPBiCGStab:  Solving for omega, Initial residual = 0.0002580767, Final residual = 9.052124e-06, No Iterations 1
DILUPBiCGStab:  Solving for k, Initial residual = 0.0005553372, Final residual = 3.171944e-05, No Iterations 1
ExecutionTime = 0.6 s  ClockTime = 1 s

Time = 3602

DILUPBiCGStab:  Solving for h, Initial residual = 9.537794e-05, Final residual = 3.037947e-09, No Iterations 1
limitTemperature limitT Lower limited 0 (0%) of cells, with min limit 280
limitTemperature limitT Upper limited 0 (0%) of cells, with max limit 1200
limitTemperature limitT Unlimited Tmin 415.4286
limitTemperature limitT Unlimited Tmax 499.9115
GAMG:  Solving for p_rgh, Initial residual = 0.03086897, Final residual = 5.435949e-05, No Iterations 2
limitVelocity limitU Limited 0 (0%) of cells, with max limit 5
time step continuity errors : sum local = 0.0003434963, global = -8.057532e-18, cumulative = 1.400243e-15
rho min/max : 0.5698016 0.9544666
DILUPBiCGStab:  Solving for omega, Initial residual = 0.0002192848, Final residual = 8.493703e-06, No Iterations 1
DILUPBiCGStab:  Solving for k, Initial residual = 0.0005377549, Final residual = 3.203457e-05, No Iterations 1
ExecutionTime = 0.62 s  ClockTime = 1 s

Time = 3603

DILUPBiCGStab:  Solving for h, Initial residual = 8.573044e-05, Final residual = 1.87511e-09, No Iterations 1
limitTemperature limitT Lower limited 0 (0%) of cells, with min limit 280
limitTemperature limitT Upper limited 0 (0%) of cells, with max limit 1200
limitTemperature limitT Unlimited Tmin 415.4323
limitTemperature limitT Unlimited Tmax 499.9684
Radiation solver iter: 0
DILUPBiCGStab:  Solving for ILambda_0_0, Initial residual = 0.2013024, Final residual = 1.986916e-15, No Iterations 1
DILUPBiCGStab:  Solving for ILambda_1_0, Initial residual = 0.3785537, Final residual = 2.673662e-15, No Iterations 1
DILUPBiCGStab:  Solving for ILambda_2_0, Initial residual = 0.5302489, Final residual = 3.171299e-15, No Iterations 1
DILUPBiCGStab:  Solving for ILambda_3_0, Initial residual = 0.6901719, Final residual = 3.909178e-15, No Iterations 1
DILUPBiCGStab:  Solving for ILambda_4_0, Initial residual = 0.7019309, Final residual = 0.04123162, No Iterations 4
DILUPBiCGStab:  Solving for ILambda_5_0, Initial residual = 0.5557999, Final residual = 0.02018732, No Iterations 10
DILUPBiCGStab:  Solving for ILambda_6_0, Initial residual = 0.4087798, Final residual = 0.03928614, No Iterations 15
DILUPBiCGStab:  Solving for ILambda_7_0, Initial residual = 0.2312351, Final residual = 0.01691522, No Iterations 30
DILUPBiCGStab:  Solving for ILambda_8_0, Initial residual = 0.2203159, Final residual = 1.852657e-15, No Iterations 1
DILUPBiCGStab:  Solving for ILambda_9_0, Initial residual = 0.3696463, Final residual = 2.360152e-15, No Iterations 1
DILUPBiCGStab:  Solving for ILambda_10_0, Initial residual = 0.493192, Final residual = 2.607729e-15, No Iterations 1
DILUPBiCGStab:  Solving for ILambda_11_0, Initial residual = 0.631124, Final residual = 3.092967e-15, No Iterations 1
DILUPBiCGStab:  Solving for ILambda_12_0, Initial residual = 0.6887669, Final residual = 0.04293036, No Iterations 4
DILUPBiCGStab:  Solving for ILambda_13_0, Initial residual = 0.6073586, Final residual = 0.02344482, No Iterations 11
DILUPBiCGStab:  Solving for ILambda_14_0, Initial residual = 0.5199957, Final residual = 0.05087943, No Iterations 16
DILUPBiCGStab:  Solving for ILambda_15_0, Initial residual = 0.435585, Final residual = 0.01758183, No Iterations 31
Radiation solver iter: 1
DILUPBiCGStab:  Solving for ILambda_0_0, Initial residual = 0.04668016, Final residual = 1.77205e-16, No Iterations 1
DILUPBiCGStab:  Solving for ILambda_1_0, Initial residual = 0.06903483, Final residual = 1.86529e-16, No Iterations 1
DILUPBiCGStab:  Solving for ILambda_2_0, Initial residual = 0.09320104, Final residual = 2.354781e-16, No Iterations 1
DILUPBiCGStab:  Solving for ILambda_3_0, Initial residual = 0.1150992, Final residual = 3.582123e-16, No Iterations 1
DILUPBiCGStab:  Solving for ILambda_4_0, Initial residual = 0.21322, Final residual = 0.01811865, No Iterations 3
DILUPBiCGStab:  Solving for ILambda_5_0, Initial residual = 0.1303558, Final residual = 0.00570742, No Iterations 9
DILUPBiCGStab:  Solving for ILambda_6_0, Initial residual = 0.1336775, Final residual = 0.01054478, No Iterations 12
DILUPBiCGStab:  Solving for ILambda_7_0, Initial residual = 0.05982628, Final residual = 0.004975483, No Iterations 16
DILUPBiCGStab:  Solving for ILambda_8_0, Initial residual = 0.02355668, Final residual = 1.177515e-16, No Iterations 1
DILUPBiCGStab:  Solving for ILambda_9_0, Initial residual = 0.03340938, Final residual = 1.58858e-16, No Iterations 1
DILUPBiCGStab:  Solving for ILambda_10_0, Initial residual = 0.04558662, Final residual = 2.083462e-16, No Iterations 1
DILUPBiCGStab:  Solving for ILambda_11_0, Initial residual = 0.05961005, Final residual = 2.907105e-16, No Iterations 1
DILUPBiCGStab:  Solving for ILambda_12_0, Initial residual = 0.146345, Final residual = 0.01072305, No Iterations 3
DILUPBiCGStab:  Solving for ILambda_13_0, Initial residual = 0.1041644, Final residual = 0.002302801, No Iterations 8
DILUPBiCGStab:  Solving for ILambda_14_0, Initial residual = 0.1390879, Final residual = 0.01247861, No Iterations 11
DILUPBiCGStab:  Solving for ILambda_15_0, Initial residual = 0.08131879, Final residual = 0.008064717, No Iterations 22
Radiation solver iter: 2
DILUPBiCGStab:  Solving for ILambda_0_0, Initial residual = 0.02655016, Final residual = 4.933146e-17, No Iterations 1
DILUPBiCGStab:  Solving for ILambda_1_0, Initial residual = 0.04021225, Final residual = 4.302013e-17, No Iterations 1
DILUPBiCGStab:  Solving for ILambda_2_0, Initial residual = 0.04909475, Final residual = 4.900148e-17, No Iterations 1
DILUPBiCGStab:  Solving for ILambda_3_0, Initial residual = 0.04469147, Final residual = 5.522945e-17, No Iterations 1
DILUPBiCGStab:  Solving for ILambda_4_0, Initial residual = 0.05984279, Final residual = 0.004010046, No Iterations 3
DILUPBiCGStab:  Solving for ILambda_5_0, Initial residual = 0.05331896, Final residual = 0.005256413, No Iterations 5
DILUPBiCGStab:  Solving for ILambda_6_0, Initial residual = 0.04834159, Final residual = 0.001542087, No Iterations 8
DILUPBiCGStab:  Solving for ILambda_7_0, Initial residual = 0.03003647, Final residual = 0.002723261, No Iterations 9
DILUPBiCGStab:  Solving for ILambda_8_0, Initial residual = 0.008814672, Final residual = 1.492969e-17, No Iterations 1
DILUPBiCGStab:  Solving for ILambda_9_0, Initial residual = 0.01143464, Final residual = 2.007596e-17, No Iterations 1
DILUPBiCGStab:  Solving for ILambda_10_0, Initial residual = 0.01338521, Final residual = 2.801597e-17, No Iterations 1
DILUPBiCGStab:  Solving for ILambda_11_0, Initial residual = 0.01326158, Final residual = 3.79933e-17, No Iterations 1
DILUPBiCGStab:  Solving for ILambda_12_0, Initial residual = 0.02699475, Final residual = 0.002028354, No Iterations 3
DILUPBiCGStab:  Solving for ILambda_13_0, Initial residual = 0.02110577, Final residual = 0.002077979, No Iterations 8
DILUPBiCGStab:  Solving for ILambda_14_0, Initial residual = 0.03504577, Final residual = 0.002476354, No Iterations 10
DILUPBiCGStab:  Solving for ILambda_15_0, Initial residual = 0.03249755, Final residual = 0.002936215, No Iterations 13
Radiation solver iter: 3
DILUPBiCGStab:  Solving for ILambda_0_0, Initial residual = 0.02183359, Final residual = 3.463219e-17, No Iterations 1
DILUPBiCGStab:  Solving for ILambda_1_0, Initial residual = 0.02966046, Final residual = 2.508654e-17, No Iterations 1
DILUPBiCGStab:  Solving for ILambda_2_0, Initial residual = 0.03170448, Final residual = 2.20556e-17, No Iterations 1
DILUPBiCGStab:  Solving for ILambda_3_0, Initial residual = 0.02023069, Final residual = 1.75908e-17, No Iterations 1
DILUPBiCGStab:  Solving for ILambda_4_0, Initial residual = 0.02360378, Final residual = 0.001111811, No Iterations 2
DILUPBiCGStab:  Solving for ILambda_5_0, Initial residual = 0.03492359, Final residual = 0.002354365, No Iterations 4
DILUPBiCGStab:  Solving for ILambda_6_0, Initial residual = 0.03104972, Final residual = 0.002697605, No Iterations 4
DILUPBiCGStab:  Solving for ILambda_7_0, Initial residual = 0.02231589, Final residual = 0.001890335, No Iterations 6
DILUPBiCGStab:  Solving for ILambda_8_0, Initial residual = 0.007243911, Final residual = 1.000181e-17, No Iterations 1
DILUPBiCGStab:  Solving for ILambda_9_0, Initial residual = 0.009409582, Final residual = 1.411946e-17, No Iterations 1
DILUPBiCGStab:  Solving for ILambda_10_0, Initial residual = 0.00988254, Final residual = 1.836817e-17, No Iterations 1
DILUPBiCGStab:  Solving for ILambda_11_0, Initial residual = 0.008488298, Final residual = 2.30919e-17, No Iterations 1
DILUPBiCGStab:  Solving for ILambda_12_0, Initial residual = 0.01200761, Final residual = 0.0003640313, No Iterations 5
DILUPBiCGStab:  Solving for ILambda_13_0, Initial residual = 0.01544765, Final residual = 0.0008051502, No Iterations 8
DILUPBiCGStab:  Solving for ILambda_14_0, Initial residual = 0.02019267, Final residual = 0.001810234, No Iterations 12
DILUPBiCGStab:  Solving for ILambda_15_0, Initial residual = 0.02448672, Final residual = 0.001717572, No Iterations 9
Radiation solver iter: 4
DILUPBiCGStab:  Solving for ILambda_0_0, Initial residual = 0.01921095, Final residual = 2.647536e-17, No Iterations 1
DILUPBiCGStab:  Solving for ILambda_1_0, Initial residual = 0.02283039, Final residual = 1.893605e-17, No Iterations 1
DILUPBiCGStab:  Solving for ILambda_2_0, Initial residual = 0.02164803, Final residual = 1.427463e-17, No Iterations 1
DILUPBiCGStab:  Solving for ILambda_3_0, Initial residual = 0.00842848, Final residual = 8.773895e-18, No Iterations 1
DILUPBiCGStab:  Solving for ILambda_4_0, Initial residual = 0.009875434, Final residual = 0.0007477847, No Iterations 2
DILUPBiCGStab:  Solving for ILambda_5_0, Initial residual = 0.0244362, Final residual = 0.0007476546, No Iterations 4
DILUPBiCGStab:  Solving for ILambda_6_0, Initial residual = 0.02374515, Final residual = 0.002279313, No Iterations 3
DILUPBiCGStab:  Solving for ILambda_7_0, Initial residual = 0.01872353, Final residual = 0.001469564, No Iterations 6
DILUPBiCGStab:  Solving for ILambda_8_0, Initial residual = 0.006223408, Final residual = 7.591344e-18, No Iterations 1
DILUPBiCGStab:  Solving for ILambda_9_0, Initial residual = 0.007938424, Final residual = 1.075603e-17, No Iterations 1
DILUPBiCGStab:  Solving for ILambda_10_0, Initial residual = 0.007400885, Final residual = 1.287208e-17, No Iterations 1
DILUPBiCGStab:  Solving for ILambda_11_0, Initial residual = 0.005836744, Final residual = 1.567637e-17, No Iterations 1
DILUPBiCGStab:  Solving for ILambda_12_0, Initial residual = 0.007159592, Final residual = 0.0004766568, No Iterations 4
DILUPBiCGStab:  Solving for ILambda_13_0, Initial residual = 0.01150457, Final residual = 0.0008099536, No Iterations 7
DILUPBiCGStab:  Solving for ILambda_14_0, Initial residual = 0.01636819, Final residual = 0.0007743409, No Iterations 10
DILUPBiCGStab:  Solving for ILambda_15_0, Initial residual = 0.02097182, Final residual = 0.002010436, No Iterations 6
Radiation solver iter: 5
DILUPBiCGStab:  Solving for ILambda_0_0, Initial residual = 0.01713899, Final residual = 2.032175e-17, No Iterations 1
DILUPBiCGStab:  Solving for ILambda_1_0, Initial residual = 0.01801141, Final residual = 1.277328e-17, No Iterations 1
DILUPBiCGStab:  Solving for ILambda_2_0, Initial residual = 0.01502039, Final residual = 9.894079e-18, No Iterations 1
DILUPBiCGStab:  Solving for ILambda_3_0, Initial residual = 0.003329538, Final residual = 2.227084e-18, No Iterations 1
DILUPBiCGStab:  Solving for ILambda_4_0, Initial residual = 0.004150774, Final residual = 0.0002626774, No Iterations 2
DILUPBiCGStab:  Solving for ILambda_5_0, Initial residual = 0.01665004, Final residual = 0.0003639752, No Iterations 4
DILUPBiCGStab:  Solving for ILambda_6_0, Initial residual = 0.01869461, Final residual = 0.001162981, No Iterations 3
DILUPBiCGStab:  Solving for ILambda_7_0, Initial residual = 0.01613365, Final residual = 0.0008314069, No Iterations 6
DILUPBiCGStab:  Solving for ILambda_8_0, Initial residual = 0.005423287, Final residual = 6.154873e-18, No Iterations 1
DILUPBiCGStab:  Solving for ILambda_9_0, Initial residual = 0.006586651, Final residual = 8.515007e-18, No Iterations 1
DILUPBiCGStab:  Solving for ILambda_10_0, Initial residual = 0.005509856, Final residual = 8.885087e-18, No Iterations 1
DILUPBiCGStab:  Solving for ILambda_11_0, Initial residual = 0.004168375, Final residual = 1.086138e-17, No Iterations 1
DILUPBiCGStab:  Solving for ILambda_12_0, Initial residual = 0.005106297, Final residual = 0.0003373576, No Iterations 4
DILUPBiCGStab:  Solving for ILambda_13_0, Initial residual = 0.008611028, Final residual = 0.0008571102, No Iterations 7
DILUPBiCGStab:  Solving for ILambda_14_0, Initial residual = 0.01348249, Final residual = 0.001197324, No Iterations 6
DILUPBiCGStab:  Solving for ILambda_15_0, Initial residual = 0.0189453, Final residual = 0.001789599, No Iterations 7
Radiation solver iter: 6
DILUPBiCGStab:  Solving for ILambda_0_0, Initial residual = 0.01534836, Final residual = 1.760999e-17, No Iterations 1
DILUPBiCGStab:  Solving for ILambda_1_0, Initial residual = 0.01426941, Final residual = 1.010789e-17, No Iterations 1
DILUPBiCGStab:  Solving for ILambda_2_0, Initial residual = 0.01043979, Final residual = 6.555578e-18, No Iterations 1
DILUPBiCGStab:  Solving for ILambda_3_0, Initial residual = 0.001247586, Final residual = 1.027788e-18, No Iterations 1
DILUPBiCGStab:  Solving for ILambda_4_0, Initial residual = 0.001628106, Final residual = 0.0001100431, No Iterations 2
DILUPBiCGStab:  Solving for ILambda_5_0, Initial residual = 0.0112458, Final residual = 0.001027996, No Iterations 2
DILUPBiCGStab:  Solving for ILambda_6_0, Initial residual = 0.0146171, Final residual = 0.0007685126, No Iterations 3
DILUPBiCGStab:  Solving for ILambda_7_0, Initial residual = 0.01387083, Final residual = 0.0006587107, No Iterations 5
DILUPBiCGStab:  Solving for ILambda_8_0, Initial residual = 0.004678254, Final residual = 4.458242e-18, No Iterations 1
DILUPBiCGStab:  Solving for ILambda_9_0, Initial residual = 0.005328186, Final residual = 6.628563e-18, No Iterations 1
DILUPBiCGStab:  Solving for ILambda_10_0, Initial residual = 0.004192993, Final residual = 6.444423e-18, No Iterations 1
DILUPBiCGStab:  Solving for ILambda_11_0, Initial residual = 0.003094691, Final residual = 7.963717e-18, No Iterations 1
DILUPBiCGStab:  Solving for ILambda_12_0, Initial residual = 0.003639728, Final residual = 0.0002731412, No Iterations 4
DILUPBiCGStab:  Solving for ILambda_13_0, Initial residual = 0.006408703, Final residual = 7.912959e-05, No Iterations 9
DILUPBiCGStab:  Solving for ILambda_14_0, Initial residual = 0.01112348, Final residual = 0.001076142, No Iterations 7
DILUPBiCGStab:  Solving for ILambda_15_0, Initial residual = 0.01668995, Final residual = 0.001248538, No Iterations 6
Radiation solver iter: 7
DILUPBiCGStab:  Solving for ILambda_0_0, Initial residual = 0.01364829, Final residual = 1.601801e-17, No Iterations 1
DILUPBiCGStab:  Solving for ILambda_1_0, Initial residual = 0.01131202, Final residual = 6.608846e-18, No Iterations 1
DILUPBiCGStab:  Solving for ILambda_2_0, Initial residual = 0.007077178, Final residual = 4.011592e-18, No Iterations 1
DILUPBiCGStab:  Solving for ILambda_3_0, Initial residual = 0.0004327444, Final residual = 3.043936e-19, No Iterations 1
DILUPBiCGStab:  Solving for ILambda_4_0, Initial residual = 0.0006113184, Final residual = 5.507853e-05, No Iterations 2
DILUPBiCGStab:  Solving for ILambda_5_0, Initial residual = 0.007508433, Final residual = 0.0005849922, No Iterations 2
DILUPBiCGStab:  Solving for ILambda_6_0, Initial residual = 0.01140612, Final residual = 0.0005767927, No Iterations 3
DILUPBiCGStab:  Solving for ILambda_7_0, Initial residual = 0.01208236, Final residual = 0.0009736601, No Iterations 3
DILUPBiCGStab:  Solving for ILambda_8_0, Initial residual = 0.004043309, Final residual = 3.785111e-18, No Iterations 1
DILUPBiCGStab:  Solving for ILambda_9_0, Initial residual = 0.004345319, Final residual = 4.96784e-18, No Iterations 1
DILUPBiCGStab:  Solving for ILambda_10_0, Initial residual = 0.003413134, Final residual = 4.791552e-18, No Iterations 1
DILUPBiCGStab:  Solving for ILambda_11_0, Initial residual = 0.002497759, Final residual = 6.172377e-18, No Iterations 1
DILUPBiCGStab:  Solving for ILambda_12_0, Initial residual = 0.002933752, Final residual = 0.0001700225, No Iterations 4
DILUPBiCGStab:  Solving for ILambda_13_0, Initial residual = 0.005066671, Final residual = 0.0004422919, No Iterations 7
DILUPBiCGStab:  Solving for ILambda_14_0, Initial residual = 0.009034959, Final residual = 0.0008273887, No Iterations 7
DILUPBiCGStab:  Solving for ILambda_15_0, Initial residual = 0.01441587, Final residual = 0.001282449, No Iterations 5
Radiation solver iter: 8
DILUPBiCGStab:  Solving for ILambda_0_0, Initial residual = 0.01208903, Final residual = 1.175391e-17, No Iterations 1
DILUPBiCGStab:  Solving for ILambda_1_0, Initial residual = 0.008926364, Final residual = 4.823584e-18, No Iterations 1
DILUPBiCGStab:  Solving for ILambda_2_0, Initial residual = 0.004622061, Final residual = 2.043223e-18, No Iterations 1
DILUPBiCGStab:  Solving for ILambda_5_0, Initial residual = 0.004848025, Final residual = 0.0003282072, No Iterations 2
DILUPBiCGStab:  Solving for ILambda_6_0, Initial residual = 0.008824284, Final residual = 0.0004472932, No Iterations 3
DILUPBiCGStab:  Solving for ILambda_7_0, Initial residual = 0.0105719, Final residual = 0.0009705114, No Iterations 3
DILUPBiCGStab:  Solving for ILambda_8_0, Initial residual = 0.003478448, Final residual = 3.042279e-18, No Iterations 1
DILUPBiCGStab:  Solving for ILambda_9_0, Initial residual = 0.003533478, Final residual = 3.453095e-18, No Iterations 1
DILUPBiCGStab:  Solving for ILambda_10_0, Initial residual = 0.002828736, Final residual = 3.856201e-18, No Iterations 1
DILUPBiCGStab:  Solving for ILambda_11_0, Initial residual = 0.002035029, Final residual = 5.281165e-18, No Iterations 1
DILUPBiCGStab:  Solving for ILambda_12_0, Initial residual = 0.002365448, Final residual = 0.0001219156, No Iterations 4
DILUPBiCGStab:  Solving for ILambda_13_0, Initial residual = 0.004464511, Final residual = 0.0004013924, No Iterations 8
DILUPBiCGStab:  Solving for ILambda_14_0, Initial residual = 0.007202233, Final residual = 0.0001488218, No Iterations 10
DILUPBiCGStab:  Solving for ILambda_15_0, Initial residual = 0.01253198, Final residual = 0.001150018, No Iterations 5
Radiation solver iter: 9
DILUPBiCGStab:  Solving for ILambda_0_0, Initial residual = 0.01060449, Final residual = 9.907544e-18, No Iterations 1
DILUPBiCGStab:  Solving for ILambda_1_0, Initial residual = 0.007035019, Final residual = 3.565694e-18, No Iterations 1
DILUPBiCGStab:  Solving for ILambda_2_0, Initial residual = 0.002887158, Final residual = 1.449533e-18, No Iterations 1
DILUPBiCGStab:  Solving for ILambda_5_0, Initial residual = 0.003031705, Final residual = 0.0001834018, No Iterations 2
DILUPBiCGStab:  Solving for ILambda_6_0, Initial residual = 0.006744771, Final residual = 4.409036e-05, No Iterations 5
DILUPBiCGStab:  Solving for ILambda_7_0, Initial residual = 0.009266274, Final residual = 0.0005682636, No Iterations 4
DILUPBiCGStab:  Solving for ILambda_8_0, Initial residual = 0.002969144, Final residual = 2.695739e-18, No Iterations 1
DILUPBiCGStab:  Solving for ILambda_9_0, Initial residual = 0.002894214, Final residual = 2.842426e-18, No Iterations 1
DILUPBiCGStab:  Solving for ILambda_10_0, Initial residual = 0.002367623, Final residual = 3.384916e-18, No Iterations 1
DILUPBiCGStab:  Solving for ILambda_11_0, Initial residual = 0.001644065, Final residual = 4.10978e-18, No Iterations 1
DILUPBiCGStab:  Solving for ILambda_12_0, Initial residual = 0.001903302, Final residual = 0.0001604417, No Iterations 3
DILUPBiCGStab:  Solving for ILambda_13_0, Initial residual = 0.003919825, Final residual = 0.0003276361, No Iterations 6
DILUPBiCGStab:  Solving for ILambda_14_0, Initial residual = 0.005733431, Final residual = 0.0005457348, No Iterations 6
DILUPBiCGStab:  Solving for ILambda_15_0, Initial residual = 0.01081905, Final residual = 0.001072366, No Iterations 5
Radiation solver iter: 10
DILUPBiCGStab:  Solving for ILambda_0_0, Initial residual = 0.009242807, Final residual = 8.10814e-18, No Iterations 1
DILUPBiCGStab:  Solving for ILambda_1_0, Initial residual = 0.005519582, Final residual = 2.631566e-18, No Iterations 1
DILUPBiCGStab:  Solving for ILambda_2_0, Initial residual = 0.001709912, Final residual = 8.865264e-19, No Iterations 1
DILUPBiCGStab:  Solving for ILambda_5_0, Initial residual = 0.001810896, Final residual = 0.000106908, No Iterations 2
DILUPBiCGStab:  Solving for ILambda_6_0, Initial residual = 0.005075572, Final residual = 0.0002871184, No Iterations 2
DILUPBiCGStab:  Solving for ILambda_7_0, Initial residual = 0.007989968, Final residual = 0.0006300788, No Iterations 3
DILUPBiCGStab:  Solving for ILambda_8_0, Initial residual = 0.002530343, Final residual = 1.855265e-18, No Iterations 1
DILUPBiCGStab:  Solving for ILambda_9_0, Initial residual = 0.002403367, Final residual = 2.307077e-18, No Iterations 1
DILUPBiCGStab:  Solving for ILambda_10_0, Initial residual = 0.001974623, Final residual = 2.726692e-18, No Iterations 1
DILUPBiCGStab:  Solving for ILambda_11_0, Initial residual = 0.001302523, Final residual = 3.292268e-18, No Iterations 1
DILUPBiCGStab:  Solving for ILambda_12_0, Initial residual = 0.001522837, Final residual = 0.0001444571, No Iterations 3
DILUPBiCGStab:  Solving for ILambda_13_0, Initial residual = 0.003369841, Final residual = 0.000104065, No Iterations 8
DILUPBiCGStab:  Solving for ILambda_14_0, Initial residual = 0.004858125, Final residual = 0.0002534588, No Iterations 8
DILUPBiCGStab:  Solving for ILambda_15_0, Initial residual = 0.009285223, Final residual = 0.0008191963, No Iterations 6
Radiation solver iter: 11
DILUPBiCGStab:  Solving for ILambda_0_0, Initial residual = 0.007998279, Final residual = 6.688633e-18, No Iterations 1
DILUPBiCGStab:  Solving for ILambda_1_0, Initial residual = 0.004291244, Final residual = 2.185407e-18, No Iterations 1
DILUPBiCGStab:  Solving for ILambda_2_0, Initial residual = 0.0009745213, Final residual = 3.474838e-19, No Iterations 1
DILUPBiCGStab:  Solving for ILambda_5_0, Initial residual = 0.001041791, Final residual = 6.039024e-05, No Iterations 2
DILUPBiCGStab:  Solving for ILambda_6_0, Initial residual = 0.003801224, Final residual = 0.0003795027, No Iterations 2
DILUPBiCGStab:  Solving for ILambda_7_0, Initial residual = 0.006936039, Final residual = 0.0003405953, No Iterations 4
DILUPBiCGStab:  Solving for ILambda_8_0, Initial residual = 0.002162497, Final residual = 1.688572e-18, No Iterations 1
DILUPBiCGStab:  Solving for ILambda_9_0, Initial residual = 0.002014184, Final residual = 1.866048e-18, No Iterations 1
DILUPBiCGStab:  Solving for ILambda_10_0, Initial residual = 0.001612191, Final residual = 2.237918e-18, No Iterations 1
DILUPBiCGStab:  Solving for ILambda_11_0, Initial residual = 0.0009966672, Final residual = 2.537442e-18, No Iterations 1
DILUPBiCGStab:  Solving for ILambda_12_0, Initial residual = 0.001188209, Final residual = 6.786407e-05, No Iterations 4
DILUPBiCGStab:  Solving for ILambda_13_0, Initial residual = 0.002630892, Final residual = 0.0002313034, No Iterations 7
DILUPBiCGStab:  Solving for ILambda_14_0, Initial residual = 0.004072, Final residual = 0.0003678637, No Iterations 9
DILUPBiCGStab:  Solving for ILambda_15_0, Initial residual = 0.007931703, Final residual = 0.0007871722, No Iterations 3
Radiation solver iter: 12
DILUPBiCGStab:  Solving for ILambda_0_0, Initial residual = 0.00686538, Final residual = 5.543438e-18, No Iterations 1
DILUPBiCGStab:  Solving for ILambda_1_0, Initial residual = 0.003322338, Final residual = 1.503926e-18, No Iterations 1
DILUPBiCGStab:  Solving for ILambda_5_0, Initial residual = 0.0005854319, Final residual = 6.391211e-05, No Iterations 2
DILUPBiCGStab:  Solving for ILambda_6_0, Initial residual = 0.002887458, Final residual = 0.000171738, No Iterations 2
DILUPBiCGStab:  Solving for ILambda_7_0, Initial residual = 0.005912554, Final residual = 0.0004433019, No Iterations 3
DILUPBiCGStab:  Solving for ILambda_8_0, Initial residual = 0.001851793, Final residual = 1.384372e-18, No Iterations 1
DILUPBiCGStab:  Solving for ILambda_9_0, Initial residual = 0.001683283, Final residual = 1.51321e-18, No Iterations 1
DILUPBiCGStab:  Solving for ILambda_10_0, Initial residual = 0.0012887, Final residual = 1.776137e-18, No Iterations 1
DILUPBiCGStab:  Solving for ILambda_12_0, Initial residual = 0.0008716243, Final residual = 8.554349e-05, No Iterations 3
DILUPBiCGStab:  Solving for ILambda_13_0, Initial residual = 0.002072213, Final residual = 0.0001961413, No Iterations 6
DILUPBiCGStab:  Solving for ILambda_14_0, Initial residual = 0.003469118, Final residual = 1.113201e-05, No Iterations 13
DILUPBiCGStab:  Solving for ILambda_15_0, Initial residual = 0.006879811, Final residual = 0.000414732, No Iterations 4
Radiation solver iter: 13
DILUPBiCGStab:  Solving for ILambda_0_0, Initial residual = 0.005853313, Final residual = 4.450762e-18, No Iterations 1
DILUPBiCGStab:  Solving for ILambda_1_0, Initial residual = 0.002542264, Final residual = 1.060181e-18, No Iterations 1
DILUPBiCGStab:  Solving for ILambda_6_0, Initial residual = 0.002138501, Final residual = 0.0001135606, No Iterations 2
DILUPBiCGStab:  Solving for ILambda_7_0, Initial residual = 0.005049667, Final residual = 0.0004739463, No Iterations 2
DILUPBiCGStab:  Solving for ILambda_8_0, Initial residual = 0.001591927, Final residual = 1.16981e-18, No Iterations 1
DILUPBiCGStab:  Solving for ILambda_9_0, Initial residual = 0.001413197, Final residual = 1.260869e-18, No Iterations 1
DILUPBiCGStab:  Solving for ILambda_10_0, Initial residual = 0.001023033, Final residual = 1.35225e-18, No Iterations 1
DILUPBiCGStab:  Solving for ILambda_13_0, Initial residual = 0.001653328, Final residual = 0.0001462589, No Iterations 6
DILUPBiCGStab:  Solving for ILambda_14_0, Initial residual = 0.00284105, Final residual = 0.000234483, No Iterations 8
DILUPBiCGStab:  Solving for ILambda_15_0, Initial residual = 0.005935743, Final residual = 0.0005162822, No Iterations 3
Radiation solver iter: 14
DILUPBiCGStab:  Solving for ILambda_0_0, Initial residual = 0.004956753, Final residual = 3.575329e-18, No Iterations 1
DILUPBiCGStab:  Solving for ILambda_1_0, Initial residual = 0.001923247, Final residual = 8.010069e-19, No Iterations 1
DILUPBiCGStab:  Solving for ILambda_6_0, Initial residual = 0.001574014, Final residual = 7.456862e-05, No Iterations 2
DILUPBiCGStab:  Solving for ILambda_7_0, Initial residual = 0.004308427, Final residual = 0.0003916251, No Iterations 2
DILUPBiCGStab:  Solving for ILambda_8_0, Initial residual = 0.001373315, Final residual = 9.66824e-19, No Iterations 1
DILUPBiCGStab:  Solving for ILambda_9_0, Initial residual = 0.001186652, Final residual = 1.079124e-18, No Iterations 1
DILUPBiCGStab:  Solving for ILambda_10_0, Initial residual = 0.0008050054, Final residual = 1.11292e-18, No Iterations 1
DILUPBiCGStab:  Solving for ILambda_13_0, Initial residual = 0.00125598, Final residual = 4.142975e-05, No Iterations 8
DILUPBiCGStab:  Solving for ILambda_14_0, Initial residual = 0.002475191, Final residual = 0.0001961783, No Iterations 8
DILUPBiCGStab:  Solving for ILambda_15_0, Initial residual = 0.005199607, Final residual = 0.0004879022, No Iterations 3
GAMG:  Solving for p_rgh, Initial residual = 0.02408927, Final residual = 5.218782e-05, No Iterations 2
limitVelocity limitU Limited 0 (0%) of cells, with max limit 5
time step continuity errors : sum local = 0.000335649, global = 4.070722e-17, cumulative = 1.44095e-15
rho min/max : 0.5627073 0.9525301
DILUPBiCGStab:  Solving for omega, Initial residual = 0.0001944986, Final residual = 7.082691e-06, No Iterations 1
DILUPBiCGStab:  Solving for k, Initial residual = 0.0005048386, Final residual = 2.886823e-05, No Iterations 1
ExecutionTime = 1.11 s  ClockTime = 1 s

Time = 3604

DILUPBiCGStab:  Solving for h, Initial residual = 8.23491e-05, Final residual = 1.794438e-09, No Iterations 1
limitTemperature limitT Lower limited 0 (0%) of cells, with min limit 280
limitTemperature limitT Upper limited 0 (0%) of cells, with max limit 1200
limitTemperature limitT Unlimited Tmin 415.4368
limitTemperature limitT Unlimited Tmax 499.955
GAMG:  Solving for p_rgh, Initial residual = 0.01742069, Final residual = 4.982483e-05, No Iterations 2
limitVelocity limitU Limited 0 (0%) of cells, with max limit 5
time step continuity errors : sum local = 0.0003143063, global = -7.494838e-18, cumulative = 1.433455e-15
rho min/max : 0.5795868 0.9532359
DILUPBiCGStab:  Solving for omega, Initial residual = 0.0001659686, Final residual = 5.836963e-06, No Iterations 1
DILUPBiCGStab:  Solving for k, Initial residual = 0.0004639096, Final residual = 2.47668e-05, No Iterations 1
ExecutionTime = 1.13 s  ClockTime = 2 s

Time = 3605

DILUPBiCGStab:  Solving for h, Initial residual = 8.398222e-05, Final residual = 1.922555e-09, No Iterations 1
limitTemperature limitT Lower limited 0 (0%) of cells, with min limit 280
limitTemperature limitT Upper limited 0 (0%) of cells, with max limit 1200
limitTemperature limitT Unlimited Tmin 415.4396
limitTemperature limitT Unlimited Tmax 499.9804
GAMG:  Solving for p_rgh, Initial residual = 0.01157008, Final residual = 4.327763e-05, No Iterations 2
limitVelocity limitU Limited 0 (0%) of cells, with max limit 5
time step continuity errors : sum local = 0.0002651024, global = 1.802411e-17, cumulative = 1.451479e-15
rho min/max : 0.5651638 0.9538861
DILUPBiCGStab:  Solving for omega, Initial residual = 0.0001696077, Final residual = 6.28298e-06, No Iterations 1
DILUPBiCGStab:  Solving for k, Initial residual = 0.0004753563, Final residual = 2.61652e-05, No Iterations 1
ExecutionTime = 1.14 s  ClockTime = 2 s

Time = 3606

DILUPBiCGStab:  Solving for h, Initial residual = 8.560449e-05, Final residual = 2.136733e-09, No Iterations 1
limitTemperature limitT Lower limited 0 (0%) of cells, with min limit 280
limitTemperature limitT Upper limited 0 (0%) of cells, with max limit 1200
limitTemperature limitT Unlimited Tmin 415.4414
limitTemperature limitT Unlimited Tmax 500.0406
Radiation solver iter: 0
DILUPBiCGStab:  Solving for ILambda_0_0, Initial residual = 0.06080708, Final residual = 5.860038e-16, No Iterations 1
DILUPBiCGStab:  Solving for ILambda_1_0, Initial residual = 0.13085, Final residual = 8.068158e-16, No Iterations 1
DILUPBiCGStab:  Solving for ILambda_2_0, Initial residual = 0.2105835, Final residual = 1.110316e-15, No Iterations 1
DILUPBiCGStab:  Solving for ILambda_3_0, Initial residual = 0.318331, Final residual = 1.641247e-15, No Iterations 1
DILUPBiCGStab:  Solving for ILambda_4_0, Initial residual = 0.3347571, Final residual = 0.01416352, No Iterations 4
DILUPBiCGStab:  Solving for ILambda_5_0, Initial residual = 0.2345828, Final residual = 0.01464795, No Iterations 11
DILUPBiCGStab:  Solving for ILambda_6_0, Initial residual = 0.1525067, Final residual = 0.0128663, No Iterations 18
DILUPBiCGStab:  Solving for ILambda_7_0, Initial residual = 0.07218351, Final residual = 0.00678243, No Iterations 30
DILUPBiCGStab:  Solving for ILambda_8_0, Initial residual = 0.04605793, Final residual = 2.770545e-16, No Iterations 1
DILUPBiCGStab:  Solving for ILambda_9_0, Initial residual = 0.09687552, Final residual = 5.41429e-16, No Iterations 1
DILUPBiCGStab:  Solving for ILambda_10_0, Initial residual = 0.1458019, Final residual = 7.534612e-16, No Iterations 1
DILUPBiCGStab:  Solving for ILambda_11_0, Initial residual = 0.2063683, Final residual = 1.072073e-15, No Iterations 1
DILUPBiCGStab:  Solving for ILambda_12_0, Initial residual = 0.2383492, Final residual = 0.0004663537, No Iterations 6
DILUPBiCGStab:  Solving for ILambda_13_0, Initial residual = 0.2129491, Final residual = 0.0006076367, No Iterations 12
DILUPBiCGStab:  Solving for ILambda_14_0, Initial residual = 0.1821704, Final residual = 0.01424795, No Iterations 17
DILUPBiCGStab:  Solving for ILambda_15_0, Initial residual = 0.1509136, Final residual = 0.007792219, No Iterations 31
Radiation solver iter: 1
DILUPBiCGStab:  Solving for ILambda_0_0, Initial residual = 0.03205173, Final residual = 7.619842e-17, No Iterations 1
DILUPBiCGStab:  Solving for ILambda_1_0, Initial residual = 0.04791478, Final residual = 7.259484e-17, No Iterations 1
DILUPBiCGStab:  Solving for ILambda_2_0, Initial residual = 0.06554872, Final residual = 8.603298e-17, No Iterations 1
DILUPBiCGStab:  Solving for ILambda_3_0, Initial residual = 0.08248926, Final residual = 1.392703e-16, No Iterations 1
DILUPBiCGStab:  Solving for ILambda_4_0, Initial residual = 0.1017349, Final residual = 0.009580427, No Iterations 3
DILUPBiCGStab:  Solving for ILambda_5_0, Initial residual = 0.08549128, Final residual = 0.008345539, No Iterations 5
DILUPBiCGStab:  Solving for ILambda_6_0, Initial residual = 0.06149862, Final residual = 0.001926471, No Iterations 11
DILUPBiCGStab:  Solving for ILambda_7_0, Initial residual = 0.03374915, Final residual = 0.0006033731, No Iterations 19
DILUPBiCGStab:  Solving for ILambda_8_0, Initial residual = 0.00864365, Final residual = 1.954346e-17, No Iterations 1
DILUPBiCGStab:  Solving for ILambda_9_0, Initial residual = 0.01210007, Final residual = 3.757515e-17, No Iterations 1
DILUPBiCGStab:  Solving for ILambda_10_0, Initial residual = 0.01618506, Final residual = 5.271322e-17, No Iterations 1
DILUPBiCGStab:  Solving for ILambda_11_0, Initial residual = 0.01957343, Final residual = 7.615096e-17, No Iterations 1
DILUPBiCGStab:  Solving for ILambda_12_0, Initial residual = 0.0237708, Final residual = 0.002359549, No Iterations 4
DILUPBiCGStab:  Solving for ILambda_13_0, Initial residual = 0.0255295, Final residual = 0.001781287, No Iterations 8
DILUPBiCGStab:  Solving for ILambda_14_0, Initial residual = 0.03817625, Final residual = 0.003059575, No Iterations 11
DILUPBiCGStab:  Solving for ILambda_15_0, Initial residual = 0.03354219, Final residual = 0.003292082, No Iterations 22
Radiation solver iter: 2
DILUPBiCGStab:  Solving for ILambda_0_0, Initial residual = 0.02098069, Final residual = 3.237571e-17, No Iterations 1
DILUPBiCGStab:  Solving for ILambda_1_0, Initial residual = 0.03391809, Final residual = 3.333146e-17, No Iterations 1
DILUPBiCGStab:  Solving for ILambda_2_0, Initial residual = 0.04435352, Final residual = 3.657692e-17, No Iterations 1
DILUPBiCGStab:  Solving for ILambda_3_0, Initial residual = 0.04556088, Final residual = 4.505598e-17, No Iterations 1
DILUPBiCGStab:  Solving for ILambda_4_0, Initial residual = 0.05333999, Final residual = 0.004278119, No Iterations 2
DILUPBiCGStab:  Solving for ILambda_5_0, Initial residual = 0.0558341, Final residual = 0.0006276442, No Iterations 7
DILUPBiCGStab:  Solving for ILambda_6_0, Initial residual = 0.03746138, Final residual = 0.002987168, No Iterations 5
DILUPBiCGStab:  Solving for ILambda_7_0, Initial residual = 0.0214359, Final residual = 0.00194006, No Iterations 8
DILUPBiCGStab:  Solving for ILambda_8_0, Initial residual = 0.005225218, Final residual = 6.992586e-18, No Iterations 1
DILUPBiCGStab:  Solving for ILambda_9_0, Initial residual = 0.00775402, Final residual = 1.243572e-17, No Iterations 1
DILUPBiCGStab:  Solving for ILambda_10_0, Initial residual = 0.009913519, Final residual = 2.028679e-17, No Iterations 1
DILUPBiCGStab:  Solving for ILambda_11_0, Initial residual = 0.01059877, Final residual = 3.166428e-17, No Iterations 1
DILUPBiCGStab:  Solving for ILambda_12_0, Initial residual = 0.01466624, Final residual = 0.0001301438, No Iterations 5
DILUPBiCGStab:  Solving for ILambda_13_0, Initial residual = 0.01730185, Final residual = 0.001289151, No Iterations 8
DILUPBiCGStab:  Solving for ILambda_14_0, Initial residual = 0.01927533, Final residual = 0.001631006, No Iterations 11
DILUPBiCGStab:  Solving for ILambda_15_0, Initial residual = 0.02198465, Final residual = 0.002163143, No Iterations 12
Radiation solver iter: 3
DILUPBiCGStab:  Solving for ILambda_0_0, Initial residual = 0.01666315, Final residual = 2.307082e-17, No Iterations 1
DILUPBiCGStab:  Solving for ILambda_1_0, Initial residual = 0.02395294, Final residual = 2.079247e-17, No Iterations 1
DILUPBiCGStab:  Solving for ILambda_2_0, Initial residual = 0.02782656, Final residual = 2.15022e-17, No Iterations 1
DILUPBiCGStab:  Solving for ILambda_3_0, Initial residual = 0.0214345, Final residual = 1.843365e-17, No Iterations 1
DILUPBiCGStab:  Solving for ILambda_4_0, Initial residual = 0.02495097, Final residual = 0.00118352, No Iterations 2
DILUPBiCGStab:  Solving for ILambda_5_0, Initial residual = 0.03380966, Final residual = 0.002934435, No Iterations 5
DILUPBiCGStab:  Solving for ILambda_6_0, Initial residual = 0.02731555, Final residual = 0.002165426, No Iterations 4
DILUPBiCGStab:  Solving for ILambda_7_0, Initial residual = 0.01682595, Final residual = 0.001434247, No Iterations 6
DILUPBiCGStab:  Solving for ILambda_8_0, Initial residual = 0.004663642, Final residual = 5.237174e-18, No Iterations 1
DILUPBiCGStab:  Solving for ILambda_9_0, Initial residual = 0.007136019, Final residual = 9.337868e-18, No Iterations 1
DILUPBiCGStab:  Solving for ILambda_10_0, Initial residual = 0.008600774, Final residual = 1.514771e-17, No Iterations 1
DILUPBiCGStab:  Solving for ILambda_11_0, Initial residual = 0.008164412, Final residual = 2.156275e-17, No Iterations 1
DILUPBiCGStab:  Solving for ILambda_12_0, Initial residual = 0.009855499, Final residual = 0.0008544426, No Iterations 4
DILUPBiCGStab:  Solving for ILambda_13_0, Initial residual = 0.01372025, Final residual = 0.001149185, No Iterations 7
DILUPBiCGStab:  Solving for ILambda_14_0, Initial residual = 0.01613713, Final residual = 0.001554611, No Iterations 8
DILUPBiCGStab:  Solving for ILambda_15_0, Initial residual = 0.01847035, Final residual = 0.0008155069, No Iterations 11
Radiation solver iter: 4
DILUPBiCGStab:  Solving for ILambda_0_0, Initial residual = 0.01408306, Final residual = 1.788228e-17, No Iterations 1
DILUPBiCGStab:  Solving for ILambda_1_0, Initial residual = 0.01768393, Final residual = 1.339474e-17, No Iterations 1
DILUPBiCGStab:  Solving for ILambda_2_0, Initial residual = 0.01886762, Final residual = 1.045713e-17, No Iterations 1
DILUPBiCGStab:  Solving for ILambda_3_0, Initial residual = 0.009165235, Final residual = 7.135247e-18, No Iterations 1
DILUPBiCGStab:  Solving for ILambda_4_0, Initial residual = 0.01093122, Final residual = 0.0008476155, No Iterations 2
DILUPBiCGStab:  Solving for ILambda_5_0, Initial residual = 0.02264259, Final residual = 0.002141883, No Iterations 3
DILUPBiCGStab:  Solving for ILambda_6_0, Initial residual = 0.02112107, Final residual = 0.001778104, No Iterations 3
DILUPBiCGStab:  Solving for ILambda_7_0, Initial residual = 0.01378871, Final residual = 0.001151182, No Iterations 5
DILUPBiCGStab:  Solving for ILambda_8_0, Initial residual = 0.004154015, Final residual = 3.900706e-18, No Iterations 1
DILUPBiCGStab:  Solving for ILambda_9_0, Initial residual = 0.006325829, Final residual = 8.156044e-18, No Iterations 1
DILUPBiCGStab:  Solving for ILambda_10_0, Initial residual = 0.006922376, Final residual = 1.12592e-17, No Iterations 1
DILUPBiCGStab:  Solving for ILambda_11_0, Initial residual = 0.005752538, Final residual = 1.423555e-17, No Iterations 1
DILUPBiCGStab:  Solving for ILambda_12_0, Initial residual = 0.006948544, Final residual = 0.0003319222, No Iterations 4
DILUPBiCGStab:  Solving for ILambda_13_0, Initial residual = 0.01114839, Final residual = 0.0009649905, No Iterations 8
DILUPBiCGStab:  Solving for ILambda_14_0, Initial residual = 0.01416645, Final residual = 0.0006720823, No Iterations 10
DILUPBiCGStab:  Solving for ILambda_15_0, Initial residual = 0.0159508, Final residual = 0.001408124, No Iterations 6
Radiation solver iter: 5
DILUPBiCGStab:  Solving for ILambda_0_0, Initial residual = 0.01219573, Final residual = 1.500992e-17, No Iterations 1
DILUPBiCGStab:  Solving for ILambda_1_0, Initial residual = 0.01330896, Final residual = 9.747495e-18, No Iterations 1
DILUPBiCGStab:  Solving for ILambda_2_0, Initial residual = 0.01304848, Final residual = 7.964962e-18, No Iterations 1
DILUPBiCGStab:  Solving for ILambda_3_0, Initial residual = 0.003709392, Final residual = 2.104439e-18, No Iterations 1
DILUPBiCGStab:  Solving for ILambda_4_0, Initial residual = 0.004649151, Final residual = 0.0002754409, No Iterations 2
DILUPBiCGStab:  Solving for ILambda_5_0, Initial residual = 0.01587262, Final residual = 0.001248396, No Iterations 3
DILUPBiCGStab:  Solving for ILambda_6_0, Initial residual = 0.01646461, Final residual = 0.001046479, No Iterations 3
DILUPBiCGStab:  Solving for ILambda_7_0, Initial residual = 0.01168434, Final residual = 0.0008529714, No Iterations 5
DILUPBiCGStab:  Solving for ILambda_8_0, Initial residual = 0.00363239, Final residual = 3.186744e-18, No Iterations 1
DILUPBiCGStab:  Solving for ILambda_9_0, Initial residual = 0.005449648, Final residual = 6.037677e-18, No Iterations 1
DILUPBiCGStab:  Solving for ILambda_10_0, Initial residual = 0.005426375, Final residual = 7.965549e-18, No Iterations 1
DILUPBiCGStab:  Solving for ILambda_11_0, Initial residual = 0.004172869, Final residual = 9.359069e-18, No Iterations 1
DILUPBiCGStab:  Solving for ILambda_12_0, Initial residual = 0.004836646, Final residual = 0.0004387987, No Iterations 3
DILUPBiCGStab:  Solving for ILambda_13_0, Initial residual = 0.008222069, Final residual = 0.0005533261, No Iterations 7
DILUPBiCGStab:  Solving for ILambda_14_0, Initial residual = 0.01157706, Final residual = 0.001033889, No Iterations 6
DILUPBiCGStab:  Solving for ILambda_15_0, Initial residual = 0.01411278, Final residual = 0.001281756, No Iterations 5
Radiation solver iter: 6
DILUPBiCGStab:  Solving for ILambda_0_0, Initial residual = 0.01061392, Final residual = 1.171278e-17, No Iterations 1
DILUPBiCGStab:  Solving for ILambda_1_0, Initial residual = 0.01019393, Final residual = 5.848382e-18, No Iterations 1
DILUPBiCGStab:  Solving for ILambda_2_0, Initial residual = 0.009111554, Final residual = 5.265376e-18, No Iterations 1
DILUPBiCGStab:  Solving for ILambda_3_0, Initial residual = 0.001390002, Final residual = 7.059036e-19, No Iterations 1
DILUPBiCGStab:  Solving for ILambda_4_0, Initial residual = 0.001738384, Final residual = 0.0001012978, No Iterations 2
DILUPBiCGStab:  Solving for ILambda_5_0, Initial residual = 0.01098224, Final residual = 0.0009847482, No Iterations 2
DILUPBiCGStab:  Solving for ILambda_6_0, Initial residual = 0.01281411, Final residual = 0.0007430716, No Iterations 3
DILUPBiCGStab:  Solving for ILambda_7_0, Initial residual = 0.01000904, Final residual = 0.0007843013, No Iterations 4
DILUPBiCGStab:  Solving for ILambda_8_0, Initial residual = 0.003171901, Final residual = 2.75357e-18, No Iterations 1
DILUPBiCGStab:  Solving for ILambda_9_0, Initial residual = 0.004545563, Final residual = 4.957245e-18, No Iterations 1
DILUPBiCGStab:  Solving for ILambda_10_0, Initial residual = 0.004203059, Final residual = 5.437257e-18, No Iterations 1
DILUPBiCGStab:  Solving for ILambda_11_0, Initial residual = 0.00303703, Final residual = 6.776962e-18, No Iterations 1
DILUPBiCGStab:  Solving for ILambda_12_0, Initial residual = 0.003477081, Final residual = 0.0003287917, No Iterations 3
DILUPBiCGStab:  Solving for ILambda_13_0, Initial residual = 0.00599887, Final residual = 0.0005080171, No Iterations 7
DILUPBiCGStab:  Solving for ILambda_14_0, Initial residual = 0.009261925, Final residual = 0.0003748453, No Iterations 8
DILUPBiCGStab:  Solving for ILambda_15_0, Initial residual = 0.01227058, Final residual = 0.00117141, No Iterations 5
Radiation solver iter: 7
DILUPBiCGStab:  Solving for ILambda_0_0, Initial residual = 0.009195329, Final residual = 9.809729e-18, No Iterations 1
DILUPBiCGStab:  Solving for ILambda_1_0, Initial residual = 0.007892141, Final residual = 5.252122e-18, No Iterations 1
DILUPBiCGStab:  Solving for ILambda_2_0, Initial residual = 0.006210741, Final residual = 3.424895e-18, No Iterations 1
DILUPBiCGStab:  Solving for ILambda_3_0, Initial residual = 0.0004742259, Final residual = 3.304025e-19, No Iterations 1
DILUPBiCGStab:  Solving for ILambda_4_0, Initial residual = 0.0006201145, Final residual = 9.61914e-05, No Iterations 1
DILUPBiCGStab:  Solving for ILambda_5_0, Initial residual = 0.007399808, Final residual = 0.0005594987, No Iterations 2
DILUPBiCGStab:  Solving for ILambda_6_0, Initial residual = 0.009951954, Final residual = 0.0006150314, No Iterations 3
DILUPBiCGStab:  Solving for ILambda_7_0, Initial residual = 0.008643214, Final residual = 0.0007558386, No Iterations 3
DILUPBiCGStab:  Solving for ILambda_8_0, Initial residual = 0.002756888, Final residual = 2.087834e-18, No Iterations 1
DILUPBiCGStab:  Solving for ILambda_9_0, Initial residual = 0.00379775, Final residual = 4.109023e-18, No Iterations 1
DILUPBiCGStab:  Solving for ILambda_10_0, Initial residual = 0.003369008, Final residual = 4.135113e-18, No Iterations 1
DILUPBiCGStab:  Solving for ILambda_11_0, Initial residual = 0.002387728, Final residual = 5.497154e-18, No Iterations 1
DILUPBiCGStab:  Solving for ILambda_12_0, Initial residual = 0.002791844, Final residual = 0.000170373, No Iterations 4
DILUPBiCGStab:  Solving for ILambda_13_0, Initial residual = 0.004761482, Final residual = 0.0003884741, No Iterations 7
DILUPBiCGStab:  Solving for ILambda_14_0, Initial residual = 0.007265763, Final residual = 0.0004311403, No Iterations 10
DILUPBiCGStab:  Solving for ILambda_15_0, Initial residual = 0.01055385, Final residual = 0.0004157066, No Iterations 7
Radiation solver iter: 8
DILUPBiCGStab:  Solving for ILambda_0_0, Initial residual = 0.0079548, Final residual = 7.989541e-18, No Iterations 1
DILUPBiCGStab:  Solving for ILambda_1_0, Initial residual = 0.006126274, Final residual = 2.974e-18, No Iterations 1
DILUPBiCGStab:  Solving for ILambda_2_0, Initial residual = 0.004089441, Final residual = 2.103842e-18, No Iterations 1
DILUPBiCGStab:  Solving for ILambda_5_0, Initial residual = 0.004784923, Final residual = 0.0003078601, No Iterations 2
DILUPBiCGStab:  Solving for ILambda_6_0, Initial residual = 0.007679133, Final residual = 0.0006078125, No Iterations 3
DILUPBiCGStab:  Solving for ILambda_7_0, Initial residual = 0.007487611, Final residual = 0.0004438719, No Iterations 4
DILUPBiCGStab:  Solving for ILambda_8_0, Initial residual = 0.002380501, Final residual = 1.7111e-18, No Iterations 1
DILUPBiCGStab:  Solving for ILambda_9_0, Initial residual = 0.003145532, Final residual = 2.781192e-18, No Iterations 1
DILUPBiCGStab:  Solving for ILambda_10_0, Initial residual = 0.002752201, Final residual = 3.27522e-18, No Iterations 1
DILUPBiCGStab:  Solving for ILambda_11_0, Initial residual = 0.001925193, Final residual = 4.785909e-18, No Iterations 1
DILUPBiCGStab:  Solving for ILambda_12_0, Initial residual = 0.002182789, Final residual = 0.0001195396, No Iterations 4
DILUPBiCGStab:  Solving for ILambda_13_0, Initial residual = 0.003969053, Final residual = 0.0002550808, No Iterations 8
DILUPBiCGStab:  Solving for ILambda_14_0, Initial residual = 0.005800457, Final residual = 0.000526717, No Iterations 7
DILUPBiCGStab:  Solving for ILambda_15_0, Initial residual = 0.008906856, Final residual = 0.0004816417, No Iterations 5
Radiation solver iter: 9
DILUPBiCGStab:  Solving for ILambda_0_0, Initial residual = 0.00684717, Final residual = 6.384792e-18, No Iterations 1
DILUPBiCGStab:  Solving for ILambda_1_0, Initial residual = 0.004768132, Final residual = 2.071925e-18, No Iterations 1
DILUPBiCGStab:  Solving for ILambda_2_0, Initial residual = 0.002578426, Final residual = 1.242634e-18, No Iterations 1
DILUPBiCGStab:  Solving for ILambda_5_0, Initial residual = 0.002980783, Final residual = 0.0001690503, No Iterations 2
DILUPBiCGStab:  Solving for ILambda_6_0, Initial residual = 0.005943234, Final residual = 0.0005025865, No Iterations 4
DILUPBiCGStab:  Solving for ILambda_7_0, Initial residual = 0.006443854, Final residual = 0.0005108566, No Iterations 3
DILUPBiCGStab:  Solving for ILambda_8_0, Initial residual = 0.002037368, Final residual = 1.86424e-18, No Iterations 1
DILUPBiCGStab:  Solving for ILambda_9_0, Initial residual = 0.002610476, Final residual = 2.199326e-18, No Iterations 1
DILUPBiCGStab:  Solving for ILambda_10_0, Initial residual = 0.0022694, Final residual = 2.803757e-18, No Iterations 1
[...]
DILUPBiCGStab:  Solving for ILambda_3_0, Initial residual = 0.01769957, Final residual = 1.455564e-17, No Iterations 1
DILUPBiCGStab:  Solving for ILambda_4_0, Initial residual = 0.02150568, Final residual = 0.001731582, No Iterations 2
DILUPBiCGStab:  Solving for ILambda_5_0, Initial residual = 0.05825398, Final residual = 0.002642466, No Iterations 4
DILUPBiCGStab:  Solving for ILambda_6_0, Initial residual = 0.071196, Final residual = 0.004723152, No Iterations 3
DILUPBiCGStab:  Solving for ILambda_7_0, Initial residual = 0.04293947, Final residual = 0.004203478, No Iterations 3
DILUPBiCGStab:  Solving for ILambda_8_0, Initial residual = 0.01359466, Final residual = 1.219459e-17, No Iterations 1
DILUPBiCGStab:  Solving for ILambda_9_0, Initial residual = 0.02557763, Final residual = 3.229933e-17, No Iterations 1
DILUPBiCGStab:  Solving for ILambda_10_0, Initial residual = 0.02942547, Final residual = 4.415535e-17, No Iterations 1
DILUPBiCGStab:  Solving for ILambda_11_0, Initial residual = 0.02358755, Final residual = 5.819934e-17, No Iterations 1
DILUPBiCGStab:  Solving for ILambda_12_0, Initial residual = 0.02635642, Final residual = 0.002105021, No Iterations 3
DILUPBiCGStab:  Solving for ILambda_13_0, Initial residual = 0.04238723, Final residual = 0.002099211, No Iterations 8
DILUPBiCGStab:  Solving for ILambda_14_0, Initial residual = 0.04937664, Final residual = 0.003763343, No Iterations 11
DILUPBiCGStab:  Solving for ILambda_15_0, Initial residual = 0.05021346, Final residual = 0.003589421, No Iterations 8
Radiation solver iter: 5
DILUPBiCGStab:  Solving for ILambda_0_0, Initial residual = 0.05658022, Final residual = 7.36144e-17, No Iterations 1
DILUPBiCGStab:  Solving for ILambda_1_0, Initial residual = 0.04323251, Final residual = 3.14205e-17, No Iterations 1
DILUPBiCGStab:  Solving for ILambda_2_0, Initial residual = 0.02831678, Final residual = 1.797421e-17, No Iterations 1
DILUPBiCGStab:  Solving for ILambda_3_0, Initial residual = 0.007538301, Final residual = 5.20456e-18, No Iterations 1
DILUPBiCGStab:  Solving for ILambda_4_0, Initial residual = 0.009299524, Final residual = 0.0006175898, No Iterations 2
DILUPBiCGStab:  Solving for ILambda_5_0, Initial residual = 0.03854223, Final residual = 0.002774694, No Iterations 3
DILUPBiCGStab:  Solving for ILambda_6_0, Initial residual = 0.05412382, Final residual = 0.0050727, No Iterations 3
DILUPBiCGStab:  Solving for ILambda_7_0, Initial residual = 0.03478874, Final residual = 0.002991071, No Iterations 3
DILUPBiCGStab:  Solving for ILambda_8_0, Initial residual = 0.01211858, Final residual = 1.083787e-17, No Iterations 1
DILUPBiCGStab:  Solving for ILambda_9_0, Initial residual = 0.02273305, Final residual = 2.692497e-17, No Iterations 1
DILUPBiCGStab:  Solving for ILambda_10_0, Initial residual = 0.02336317, Final residual = 2.89235e-17, No Iterations 1
DILUPBiCGStab:  Solving for ILambda_11_0, Initial residual = 0.01706283, Final residual = 3.945482e-17, No Iterations 1
DILUPBiCGStab:  Solving for ILambda_12_0, Initial residual = 0.02021654, Final residual = 0.0007607595, No Iterations 4
DILUPBiCGStab:  Solving for ILambda_13_0, Initial residual = 0.03234193, Final residual = 0.003151637, No Iterations 8
DILUPBiCGStab:  Solving for ILambda_14_0, Initial residual = 0.04259298, Final residual = 0.004180051, No Iterations 8
DILUPBiCGStab:  Solving for ILambda_15_0, Initial residual = 0.04549269, Final residual = 0.002232388, No Iterations 10
Radiation solver iter: 6
DILUPBiCGStab:  Solving for ILambda_0_0, Initial residual = 0.04772617, Final residual = 5.706991e-17, No Iterations 1
DILUPBiCGStab:  Solving for ILambda_1_0, Initial residual = 0.03241904, Final residual = 2.268191e-17, No Iterations 1
DILUPBiCGStab:  Solving for ILambda_2_0, Initial residual = 0.01935446, Final residual = 1.225645e-17, No Iterations 1
DILUPBiCGStab:  Solving for ILambda_3_0, Initial residual = 0.003020396, Final residual = 1.747675e-18, No Iterations 1
DILUPBiCGStab:  Solving for ILambda_4_0, Initial residual = 0.003565238, Final residual = 0.0002250807, No Iterations 2
DILUPBiCGStab:  Solving for ILambda_5_0, Initial residual = 0.02563219, Final residual = 0.002063899, No Iterations 3
DILUPBiCGStab:  Solving for ILambda_6_0, Initial residual = 0.0410833, Final residual = 0.002560273, No Iterations 3
DILUPBiCGStab:  Solving for ILambda_7_0, Initial residual = 0.02873115, Final residual = 0.001530717, No Iterations 4
DILUPBiCGStab:  Solving for ILambda_8_0, Initial residual = 0.01060691, Final residual = 7.952599e-18, No Iterations 1
DILUPBiCGStab:  Solving for ILambda_9_0, Initial residual = 0.01978583, Final residual = 1.879259e-17, No Iterations 1
DILUPBiCGStab:  Solving for ILambda_10_0, Initial residual = 0.01833118, Final residual = 2.294775e-17, No Iterations 1
DILUPBiCGStab:  Solving for ILambda_11_0, Initial residual = 0.01276208, Final residual = 2.914593e-17, No Iterations 1
DILUPBiCGStab:  Solving for ILambda_12_0, Initial residual = 0.01452789, Final residual = 0.0006583827, No Iterations 4
DILUPBiCGStab:  Solving for ILambda_13_0, Initial residual = 0.02489466, Final residual = 0.002288916, No Iterations 6
DILUPBiCGStab:  Solving for ILambda_14_0, Initial residual = 0.03600785, Final residual = 0.003121679, No Iterations 6
DILUPBiCGStab:  Solving for ILambda_15_0, Initial residual = 0.04012868, Final residual = 0.0008848528, No Iterations 11
Radiation solver iter: 7
DILUPBiCGStab:  Solving for ILambda_0_0, Initial residual = 0.04000235, Final residual = 4.703422e-17, No Iterations 1
DILUPBiCGStab:  Solving for ILambda_1_0, Initial residual = 0.02395696, Final residual = 1.529563e-17, No Iterations 1
DILUPBiCGStab:  Solving for ILambda_2_0, Initial residual = 0.01309651, Final residual = 7.915553e-18, No Iterations 1
DILUPBiCGStab:  Solving for ILambda_3_0, Initial residual = 0.001092051, Final residual = 6.113158e-19, No Iterations 1
DILUPBiCGStab:  Solving for ILambda_4_0, Initial residual = 0.001309619, Final residual = 9.453186e-05, No Iterations 2
DILUPBiCGStab:  Solving for ILambda_5_0, Initial residual = 0.01674304, Final residual = 0.001511265, No Iterations 2
DILUPBiCGStab:  Solving for ILambda_6_0, Initial residual = 0.03103344, Final residual = 0.0003089193, No Iterations 5
DILUPBiCGStab:  Solving for ILambda_7_0, Initial residual = 0.02368772, Final residual = 0.001879217, No Iterations 3
DILUPBiCGStab:  Solving for ILambda_8_0, Initial residual = 0.009258305, Final residual = 7.299079e-18, No Iterations 1
DILUPBiCGStab:  Solving for ILambda_9_0, Initial residual = 0.01713676, Final residual = 1.506501e-17, No Iterations 1
DILUPBiCGStab:  Solving for ILambda_10_0, Initial residual = 0.01459756, Final residual = 1.796697e-17, No Iterations 1
DILUPBiCGStab:  Solving for ILambda_11_0, Initial residual = 0.009906257, Final residual = 2.366748e-17, No Iterations 1
DILUPBiCGStab:  Solving for ILambda_12_0, Initial residual = 0.01131375, Final residual = 0.000699545, No Iterations 4
DILUPBiCGStab:  Solving for ILambda_13_0, Initial residual = 0.02034724, Final residual = 0.001759903, No Iterations 6
DILUPBiCGStab:  Solving for ILambda_14_0, Initial residual = 0.03003151, Final residual = 0.002417457, No Iterations 8
DILUPBiCGStab:  Solving for ILambda_15_0, Initial residual = 0.03469483, Final residual = 0.003138796, No Iterations 6
Radiation solver iter: 8
DILUPBiCGStab:  Solving for ILambda_0_0, Initial residual = 0.03341649, Final residual = 3.696845e-17, No Iterations 1
DILUPBiCGStab:  Solving for ILambda_1_0, Initial residual = 0.01756008, Final residual = 1.175804e-17, No Iterations 1
DILUPBiCGStab:  Solving for ILambda_2_0, Initial residual = 0.008675206, Final residual = 4.896644e-18, No Iterations 1
DILUPBiCGStab:  Solving for ILambda_3_0, Initial residual = 0.000417388, Final residual = 3.447805e-19, No Iterations 1
DILUPBiCGStab:  Solving for ILambda_4_0, Initial residual = 0.0005088005, Final residual = 9.771072e-05, No Iterations 1
DILUPBiCGStab:  Solving for ILambda_5_0, Initial residual = 0.01061019, Final residual = 0.0007982421, No Iterations 2
DILUPBiCGStab:  Solving for ILambda_6_0, Initial residual = 0.02324919, Final residual = 0.001580776, No Iterations 2
DILUPBiCGStab:  Solving for ILambda_7_0, Initial residual = 0.01971513, Final residual = 0.000781658, No Iterations 4
DILUPBiCGStab:  Solving for ILambda_8_0, Initial residual = 0.008073623, Final residual = 5.557088e-18, No Iterations 1
DILUPBiCGStab:  Solving for ILambda_9_0, Initial residual = 0.01467, Final residual = 1.29752e-17, No Iterations 1
DILUPBiCGStab:  Solving for ILambda_10_0, Initial residual = 0.01187281, Final residual = 1.513801e-17, No Iterations 1
DILUPBiCGStab:  Solving for ILambda_11_0, Initial residual = 0.007717841, Final residual = 1.819708e-17, No Iterations 1
DILUPBiCGStab:  Solving for ILambda_12_0, Initial residual = 0.008854215, Final residual = 0.0006340356, No Iterations 4
DILUPBiCGStab:  Solving for ILambda_13_0, Initial residual = 0.01668436, Final residual = 0.0005527532, No Iterations 8
DILUPBiCGStab:  Solving for ILambda_14_0, Initial residual = 0.02542149, Final residual = 0.002465803, No Iterations 7
DILUPBiCGStab:  Solving for ILambda_15_0, Initial residual = 0.03057707, Final residual = 0.002695702, No Iterations 5
Radiation solver iter: 9
DILUPBiCGStab:  Solving for ILambda_0_0, Initial residual = 0.02779953, Final residual = 2.951913e-17, No Iterations 1
DILUPBiCGStab:  Solving for ILambda_1_0, Initial residual = 0.01289618, Final residual = 6.996718e-18, No Iterations 1
DILUPBiCGStab:  Solving for ILambda_2_0, Initial residual = 0.005571608, Final residual = 2.743848e-18, No Iterations 1
DILUPBiCGStab:  Solving for ILambda_5_0, Initial residual = 0.006526292, Final residual = 0.0004238607, No Iterations 2
DILUPBiCGStab:  Solving for ILambda_6_0, Initial residual = 0.01753163, Final residual = 0.0009555722, No Iterations 2
DILUPBiCGStab:  Solving for ILambda_7_0, Initial residual = 0.01619674, Final residual = 0.00156519, No Iterations 2
DILUPBiCGStab:  Solving for ILambda_8_0, Initial residual = 0.007045794, Final residual = 4.729627e-18, No Iterations 1
DILUPBiCGStab:  Solving for ILambda_9_0, Initial residual = 0.01241916, Final residual = 1.003767e-17, No Iterations 1
DILUPBiCGStab:  Solving for ILambda_10_0, Initial residual = 0.009700073, Final residual = 1.227023e-17, No Iterations 1
DILUPBiCGStab:  Solving for ILambda_11_0, Initial residual = 0.006018236, Final residual = 1.497381e-17, No Iterations 1
DILUPBiCGStab:  Solving for ILambda_12_0, Initial residual = 0.007029953, Final residual = 0.0005277516, No Iterations 4
DILUPBiCGStab:  Solving for ILambda_13_0, Initial residual = 0.01345086, Final residual = 0.001043729, No Iterations 6
DILUPBiCGStab:  Solving for ILambda_14_0, Initial residual = 0.0216868, Final residual = 0.00212184, No Iterations 4
DILUPBiCGStab:  Solving for ILambda_15_0, Initial residual = 0.02640312, Final residual = 0.002489817, No Iterations 7
Radiation solver iter: 10
DILUPBiCGStab:  Solving for ILambda_0_0, Initial residual = 0.02307361, Final residual = 2.137468e-17, No Iterations 1
DILUPBiCGStab:  Solving for ILambda_1_0, Initial residual = 0.009566598, Final residual = 4.866679e-18, No Iterations 1
DILUPBiCGStab:  Solving for ILambda_2_0, Initial residual = 0.003460411, Final residual = 1.520232e-18, No Iterations 1
DILUPBiCGStab:  Solving for ILambda_5_0, Initial residual = 0.003880133, Final residual = 0.0002314281, No Iterations 2
DILUPBiCGStab:  Solving for ILambda_6_0, Initial residual = 0.0131519, Final residual = 0.0006642654, No Iterations 2
DILUPBiCGStab:  Solving for ILambda_7_0, Initial residual = 0.01357173, Final residual = 0.001117462, No Iterations 3
DILUPBiCGStab:  Solving for ILambda_8_0, Initial residual = 0.006101166, Final residual = 4.055044e-18, No Iterations 1
DILUPBiCGStab:  Solving for ILambda_9_0, Initial residual = 0.01034208, Final residual = 8.099442e-18, No Iterations 1
DILUPBiCGStab:  Solving for ILambda_10_0, Initial residual = 0.007774825, Final residual = 8.970383e-18, No Iterations 1
DILUPBiCGStab:  Solving for ILambda_11_0, Initial residual = 0.004663678, Final residual = 1.133993e-17, No Iterations 1
DILUPBiCGStab:  Solving for ILambda_12_0, Initial residual = 0.005593933, Final residual = 0.0003121965, No Iterations 4
DILUPBiCGStab:  Solving for ILambda_13_0, Initial residual = 0.01127897, Final residual = 0.0006951707, No Iterations 8
DILUPBiCGStab:  Solving for ILambda_14_0, Initial residual = 0.01796767, Final residual = 0.001081905, No Iterations 6
DILUPBiCGStab:  Solving for ILambda_15_0, Initial residual = 0.02308011, Final residual = 0.001733683, No Iterations 6
Radiation solver iter: 11
DILUPBiCGStab:  Solving for ILambda_0_0, Initial residual = 0.01906962, Final residual = 1.80681e-17, No Iterations 1
DILUPBiCGStab:  Solving for ILambda_1_0, Initial residual = 0.007223123, Final residual = 3.415741e-18, No Iterations 1
DILUPBiCGStab:  Solving for ILambda_2_0, Initial residual = 0.002069026, Final residual = 7.610866e-19, No Iterations 1
DILUPBiCGStab:  Solving for ILambda_5_0, Initial residual = 0.002221547, Final residual = 0.0001256998, No Iterations 2
DILUPBiCGStab:  Solving for ILambda_6_0, Initial residual = 0.009781882, Final residual = 0.0009716845, No Iterations 2
DILUPBiCGStab:  Solving for ILambda_7_0, Initial residual = 0.01137819, Final residual = 0.0009732502, No Iterations 3
DILUPBiCGStab:  Solving for ILambda_8_0, Initial residual = 0.005215725, Final residual = 3.299778e-18, No Iterations 1
DILUPBiCGStab:  Solving for ILambda_9_0, Initial residual = 0.008510974, Final residual = 7.039793e-18, No Iterations 1
DILUPBiCGStab:  Solving for ILambda_10_0, Initial residual = 0.006102402, Final residual = 7.653213e-18, No Iterations 1
DILUPBiCGStab:  Solving for ILambda_11_0, Initial residual = 0.003583232, Final residual = 8.414097e-18, No Iterations 1
DILUPBiCGStab:  Solving for ILambda_12_0, Initial residual = 0.004323897, Final residual = 0.0001521139, No Iterations 4
DILUPBiCGStab:  Solving for ILambda_13_0, Initial residual = 0.008908034, Final residual = 0.0008846522, No Iterations 7
DILUPBiCGStab:  Solving for ILambda_14_0, Initial residual = 0.01501228, Final residual = 0.0005835384, No Iterations 8
DILUPBiCGStab:  Solving for ILambda_15_0, Initial residual = 0.01976386, Final residual = 0.001914439, No Iterations 4
Radiation solver iter: 12
DILUPBiCGStab:  Solving for ILambda_0_0, Initial residual = 0.01572118, Final residual = 1.30392e-17, No Iterations 1
DILUPBiCGStab:  Solving for ILambda_1_0, Initial residual = 0.005494483, Final residual = 2.216741e-18, No Iterations 1
DILUPBiCGStab:  Solving for ILambda_2_0, Initial residual = 0.001187657, Final residual = 6.217161e-19, No Iterations 1
DILUPBiCGStab:  Solving for ILambda_5_0, Initial residual = 0.001236397, Final residual = 8.2511e-05, No Iterations 2
DILUPBiCGStab:  Solving for ILambda_6_0, Initial residual = 0.007345314, Final residual = 0.0003331867, No Iterations 2
DILUPBiCGStab:  Solving for ILambda_7_0, Initial residual = 0.009545057, Final residual = 0.0007537217, No Iterations 3
DILUPBiCGStab:  Solving for ILambda_8_0, Initial residual = 0.004412128, Final residual = 3.354984e-18, No Iterations 1
DILUPBiCGStab:  Solving for ILambda_9_0, Initial residual = 0.006964416, Final residual = 5.268011e-18, No Iterations 1
DILUPBiCGStab:  Solving for ILambda_10_0, Initial residual = 0.004750112, Final residual = 5.514966e-18, No Iterations 1
DILUPBiCGStab:  Solving for ILambda_11_0, Initial residual = 0.002748613, Final residual = 6.478502e-18, No Iterations 1
DILUPBiCGStab:  Solving for ILambda_12_0, Initial residual = 0.003291188, Final residual = 0.0002764935, No Iterations 3
DILUPBiCGStab:  Solving for ILambda_13_0, Initial residual = 0.007192795, Final residual = 0.0006849387, No Iterations 7
DILUPBiCGStab:  Solving for ILambda_14_0, Initial residual = 0.01216875, Final residual = 0.001020526, No Iterations 4
DILUPBiCGStab:  Solving for ILambda_15_0, Initial residual = 0.01711292, Final residual = 0.0007670456, No Iterations 5
Radiation solver iter: 13
DILUPBiCGStab:  Solving for ILambda_0_0, Initial residual = 0.01290291, Final residual = 1.047544e-17, No Iterations 1
DILUPBiCGStab:  Solving for ILambda_1_0, Initial residual = 0.004193078, Final residual = 1.763132e-18, No Iterations 1
DILUPBiCGStab:  Solving for ILambda_2_0, Initial residual = 0.0006528596, Final residual = 3.509387e-19, No Iterations 1
DILUPBiCGStab:  Solving for ILambda_5_0, Initial residual = 0.0006716329, Final residual = 6.199014e-05, No Iterations 2
DILUPBiCGStab:  Solving for ILambda_6_0, Initial residual = 0.005362945, Final residual = 0.0005028669, No Iterations 2
DILUPBiCGStab:  Solving for ILambda_7_0, Initial residual = 0.00794725, Final residual = 0.0003180609, No Iterations 4
DILUPBiCGStab:  Solving for ILambda_8_0, Initial residual = 0.003707334, Final residual = 2.545272e-18, No Iterations 1
DILUPBiCGStab:  Solving for ILambda_9_0, Initial residual = 0.00568647, Final residual = 4.547081e-18, No Iterations 1
DILUPBiCGStab:  Solving for ILambda_10_0, Initial residual = 0.003644013, Final residual = 4.176215e-18, No Iterations 1
DILUPBiCGStab:  Solving for ILambda_11_0, Initial residual = 0.002057106, Final residual = 4.974047e-18, No Iterations 1
DILUPBiCGStab:  Solving for ILambda_12_0, Initial residual = 0.002453322, Final residual = 0.0001159348, No Iterations 4
DILUPBiCGStab:  Solving for ILambda_13_0, Initial residual = 0.00557552, Final residual = 0.0004545459, No Iterations 6
DILUPBiCGStab:  Solving for ILambda_14_0, Initial residual = 0.01000138, Final residual = 0.0008962614, No Iterations 6
DILUPBiCGStab:  Solving for ILambda_15_0, Initial residual = 0.01453125, Final residual = 0.001357585, No Iterations 3
Radiation solver iter: 14
DILUPBiCGStab:  Solving for ILambda_0_0, Initial residual = 0.01055628, Final residual = 8.043922e-18, No Iterations 1
DILUPBiCGStab:  Solving for ILambda_1_0, Initial residual = 0.003177061, Final residual = 1.330552e-18, No Iterations 1
DILUPBiCGStab:  Solving for ILambda_6_0, Initial residual = 0.003963194, Final residual = 0.0003538107, No Iterations 2
DILUPBiCGStab:  Solving for ILambda_7_0, Initial residual = 0.006575277, Final residual = 0.0004314095, No Iterations 2
DILUPBiCGStab:  Solving for ILambda_8_0, Initial residual = 0.003105393, Final residual = 2.029194e-18, No Iterations 1
DILUPBiCGStab:  Solving for ILambda_9_0, Initial residual = 0.004630348, Final residual = 3.670652e-18, No Iterations 1
DILUPBiCGStab:  Solving for ILambda_10_0, Initial residual = 0.002789445, Final residual = 3.564837e-18, No Iterations 1
DILUPBiCGStab:  Solving for ILambda_11_0, Initial residual = 0.001550246, Final residual = 3.807396e-18, No Iterations 1
DILUPBiCGStab:  Solving for ILambda_12_0, Initial residual = 0.001836233, Final residual = 0.0001470285, No Iterations 4
DILUPBiCGStab:  Solving for ILambda_13_0, Initial residual = 0.004367784, Final residual = 0.0004086321, No Iterations 6
DILUPBiCGStab:  Solving for ILambda_14_0, Initial residual = 0.008174733, Final residual = 0.0007147744, No Iterations 8
DILUPBiCGStab:  Solving for ILambda_15_0, Initial residual = 0.01241584, Final residual = 0.000853085, No Iterations 4
GAMG:  Solving for p_rgh, Initial residual = 0.0003916991, Final residual = 1.380848e-06, No Iterations 2
limitVelocity limitU Limited 0 (0%) of cells, with max limit 5
time step continuity errors : sum local = 7.45669e-06, global = -2.881829e-17, cumulative = 1.301396e-15
rho min/max : 0.5045322 0.9545206
DILUPBiCGStab:  Solving for omega, Initial residual = 0.000103414, Final residual = 3.083317e-06, No Iterations 1
DILUPBiCGStab:  Solving for k, Initial residual = 0.0002604495, Final residual = 1.111771e-05, No Iterations 1
ExecutionTime = 51.54 s  ClockTime = 52 s

surfaceFieldValue wallT write:
    areaAverage(plate) of T = 597.5339

surfaceFieldValue wallTriser write:
    areaAverage(riser) of T = 386.7635

End

