/*---------------------------------------------------------------------------*\
| =========                 |                                                 |
| \\      /  F ield         | OpenFOAM: The Open Source CFD Toolbox           |
|  \\    /   O peration     | Version:  2312                                  |
|   \\  /    A nd           | Website:  www.openfoam.com                      |
|    \\/     M anipulation  |                                                 |
\*---------------------------------------------------------------------------*/
Build  : _c39a0f64-20231220 OPENFOAM=2312 version=2312
Arch   : "LSB;label=32;scalar=64"
Exec   : buoyantSimpleFoam
Date   : Jul 02 2026
Time   : 08:52:35
Host   : 16b9a717573b
PID    : 231
I/O    : uncollated
Case   : /case
nProcs : 1
trapFpe: Floating point exception trapping enabled (FOAM_SIGFPE).
fileModificationChecking : Monitoring run-time modified files using timeStampMaster (fileModificationSkew 5, maxFileModificationPolls 20)
allowSystemOperations : Allowing user-supplied system call operations

// * * * * * * * * * * * * * * * * * * * * * * * * * * * * * * * * * * * * * //
Create time

Create mesh for time = 4200


SIMPLE: convergence criteria
    field p_rgh	 tolerance 1e-05
    field U	 tolerance 1e-05
    field h	 tolerance 1e-05
    field "(k|omega)"	 tolerance 0.001

Reading thermophysical properties

Selecting thermodynamics package 
{
    type            heRhoThermo;
    mixture         pureMixture;
    transport       const;
    thermo          hConst;
    equationOfState perfectGas;
    specie          specie;
    energy          sensibleEnthalpy;
}

Reading field U

Reading/calculating face flux field phi

Creating turbulence model

Selecting turbulence model type RAS
Selecting RAS turbulence model kOmegaSST
Selecting patchDistMethod meshWave
RAS
{
    RASModel        kOmegaSST;
    turbulence      on;
    printCoeffs     on;
    alphaK1         0.85;
    alphaK2         1;
    alphaOmega1     0.5;
    alphaOmega2     0.856;
    gamma1          0.5555556;
    gamma2          0.44;
    beta1           0.075;
    beta2           0.0828;
    betaStar        0.09;
    a1              0.31;
    b1              1;
    c1              10;
    F3              false;
    decayControl    false;
    kInf            0;
    omegaInf        0;
}


Reading g

Reading hRef
Calculating field g.h

Reading field p_rgh

No MRF models present

Selecting radiationModel fvDOM
Selecting absorptionEmissionModel constantAbsorptionEmission
Selecting scatterModel none
Selecting sootModel none
fvDOM : Allocated 16 rays with average orientation:
	I0 : dAve : 	(0.1195698 0.6011177 2.944771e-33) : omega : 	0.7853982 : d : 	(0.1950903 0.9807853 6.123234e-17)
	I1 : dAve : 	(0.3405058 0.509603 2.944771e-33) : omega : 	0.7853982 : d : 	(0.5555702 0.8314696 6.123234e-17)
	I2 : dAve : 	(0.509603 0.3405058 2.944771e-33) : omega : 	0.7853982 : d : 	(0.8314696 0.5555702 6.123234e-17)
	I3 : dAve : 	(0.6011177 0.1195698 2.944771e-33) : omega : 	0.7853982 : d : 	(0.9807853 0.1950903 6.123234e-17)
	I4 : dAve : 	(0.6011177 -0.1195698 2.944771e-33) : omega : 	0.7853982 : d : 	(0.9807853 -0.1950903 6.123234e-17)
	I5 : dAve : 	(0.509603 -0.3405058 2.944771e-33) : omega : 	0.7853982 : d : 	(0.8314696 -0.5555702 6.123234e-17)
	I6 : dAve : 	(0.3405058 -0.509603 2.944771e-33) : omega : 	0.7853982 : d : 	(0.5555702 -0.8314696 6.123234e-17)
	I7 : dAve : 	(0.1195698 -0.6011177 2.944771e-33) : omega : 	0.7853982 : d : 	(0.1950903 -0.9807853 6.123234e-17)
	I8 : dAve : 	(-0.1195698 -0.6011177 2.944771e-33) : omega : 	0.7853982 : d : 	(-0.1950903 -0.9807853 6.123234e-17)
	I9 : dAve : 	(-0.3405058 -0.509603 2.944771e-33) : omega : 	0.7853982 : d : 	(-0.5555702 -0.8314696 6.123234e-17)
	I10 : dAve : 	(-0.509603 -0.3405058 2.944771e-33) : omega : 	0.7853982 : d : 	(-0.8314696 -0.5555702 6.123234e-17)
	I11 : dAve : 	(-0.6011177 -0.1195698 2.944771e-33) : omega : 	0.7853982 : d : 	(-0.9807853 -0.1950903 6.123234e-17)
	I12 : dAve : 	(-0.6011177 0.1195698 2.944771e-33) : omega : 	0.7853982 : d : 	(-0.9807853 0.1950903 6.123234e-17)
	I13 : dAve : 	(-0.509603 0.3405058 2.944771e-33) : omega : 	0.7853982 : d : 	(-0.8314696 0.5555702 6.123234e-17)
	I14 : dAve : 	(-0.3405058 0.509603 2.944771e-33) : omega : 	0.7853982 : d : 	(-0.5555702 0.8314696 6.123234e-17)
	I15 : dAve : 	(-0.1195698 0.6011177 2.944771e-33) : omega : 	0.7853982 : d : 	(-0.1950903 0.9807853 6.123234e-17)
Total omega : 12.56637

Creating finite volume options from "system/fvOptions"

Selecting finite volume options type limitTemperature
    Source: limitT
    - selecting all cells
    - selected 12000 cell(s) with volume 0.473422
Selecting finite volume options type limitVelocity
    Source: limitU
    - selecting all cells
    - selected 12000 cell(s) with volume 0.473422

Starting time loop

surfaceFieldValue wallT:
    operation     = areaAverage


surfaceFieldValue wallTriser:
    operation     = areaAverage


Time = 4201

DILUPBiCGStab:  Solving for h, Initial residual = 8.805821e-05, Final residual = 3.701534e-09, No Iterations 1
limitTemperature limitT Lower limited 0 (0%) of cells, with min limit 280
limitTemperature limitT Upper limited 0 (0%) of cells, with max limit 1200
limitTemperature limitT Unlimited Tmin 416.6489
limitTemperature limitT Unlimited Tmax 502.1453
Radiation solver iter: 0
Selecting boundary radiation Model: lookup
Selecting boundary radiation Model: lookup
Selecting boundary radiation Model: lookup
DILUPBiCGStab:  Solving for ILambda_0_0, Initial residual = 0.1216247, Final residual = 1.083334e-15, No Iterations 1
DILUPBiCGStab:  Solving for ILambda_1_0, Initial residual = 0.2251299, Final residual = 1.607065e-15, No Iterations 1
DILUPBiCGStab:  Solving for ILambda_2_0, Initial residual = 0.3289916, Final residual = 2.028302e-15, No Iterations 1
DILUPBiCGStab:  Solving for ILambda_3_0, Initial residual = 0.4710768, Final residual = 2.708615e-15, No Iterations 1
DILUPBiCGStab:  Solving for ILambda_4_0, Initial residual = 0.4747068, Final residual = 0.02478654, No Iterations 4
DILUPBiCGStab:  Solving for ILambda_5_0, Initial residual = 0.3320115, Final residual = 0.02371052, No Iterations 11
DILUPBiCGStab:  Solving for ILambda_6_0, Initial residual = 0.2431631, Final residual = 0.01858073, No Iterations 18
DILUPBiCGStab:  Solving for ILambda_7_0, Initial residual = 0.1669048, Final residual = 0.01072929, No Iterations 30
DILUPBiCGStab:  Solving for ILambda_8_0, Initial residual = 0.2187504, Final residual = 1.987188e-15, No Iterations 1
DILUPBiCGStab:  Solving for ILambda_9_0, Initial residual = 0.3632027, Final residual = 2.347631e-15, No Iterations 1
DILUPBiCGStab:  Solving for ILambda_10_0, Initial residual = 0.4880788, Final residual = 2.479579e-15, No Iterations 1
DILUPBiCGStab:  Solving for ILambda_11_0, Initial residual = 0.6176338, Final residual = 2.680235e-15, No Iterations 1
DILUPBiCGStab:  Solving for ILambda_12_0, Initial residual = 0.6665575, Final residual = 0.007927027, No Iterations 5
DILUPBiCGStab:  Solving for ILambda_13_0, Initial residual = 0.5884537, Final residual = 0.03023313, No Iterations 9
DILUPBiCGStab:  Solving for ILambda_14_0, Initial residual = 0.496421, Final residual = 0.0277314, No Iterations 16
DILUPBiCGStab:  Solving for ILambda_15_0, Initial residual = 0.3793716, Final residual = 0.02213362, No Iterations 24
Radiation solver iter: 1
DILUPBiCGStab:  Solving for ILambda_0_0, Initial residual = 0.03350336, Final residual = 8.868526e-17, No Iterations 1
DILUPBiCGStab:  Solving for ILambda_1_0, Initial residual = 0.0469947, Final residual = 1.108757e-16, No Iterations 1
DILUPBiCGStab:  Solving for ILambda_2_0, Initial residual = 0.05925276, Final residual = 1.327955e-16, No Iterations 1
DILUPBiCGStab:  Solving for ILambda_3_0, Initial residual = 0.07019001, Final residual = 1.814105e-16, No Iterations 1
DILUPBiCGStab:  Solving for ILambda_4_0, Initial residual = 0.1050109, Final residual = 0.008561226, No Iterations 3
DILUPBiCGStab:  Solving for ILambda_5_0, Initial residual = 0.09188513, Final residual = 0.001912225, No Iterations 9
DILUPBiCGStab:  Solving for ILambda_6_0, Initial residual = 0.06970157, Final residual = 0.002054811, No Iterations 14
DILUPBiCGStab:  Solving for ILambda_7_0, Initial residual = 0.04986681, Final residual = 0.00176099, No Iterations 20
DILUPBiCGStab:  Solving for ILambda_8_0, Initial residual = 0.03089771, Final residual = 1.519014e-16, No Iterations 1
DILUPBiCGStab:  Solving for ILambda_9_0, Initial residual = 0.03574837, Final residual = 1.449197e-16, No Iterations 1
DILUPBiCGStab:  Solving for ILambda_10_0, Initial residual = 0.04123661, Final residual = 1.65044e-16, No Iterations 1
DILUPBiCGStab:  Solving for ILambda_11_0, Initial residual = 0.04782217, Final residual = 2.145155e-16, No Iterations 1
DILUPBiCGStab:  Solving for ILambda_12_0, Initial residual = 0.06012922, Final residual = 0.002314254, No Iterations 4
DILUPBiCGStab:  Solving for ILambda_13_0, Initial residual = 0.08078556, Final residual = 0.007645731, No Iterations 8
DILUPBiCGStab:  Solving for ILambda_14_0, Initial residual = 0.06886342, Final residual = 0.006405255, No Iterations 14
DILUPBiCGStab:  Solving for ILambda_15_0, Initial residual = 0.05760011, Final residual = 0.002388612, No Iterations 24
Radiation solver iter: 2
DILUPBiCGStab:  Solving for ILambda_0_0, Initial residual = 0.02448501, Final residual = 4.464978e-17, No Iterations 1
DILUPBiCGStab:  Solving for ILambda_1_0, Initial residual = 0.0295743, Final residual = 3.405273e-17, No Iterations 1
DILUPBiCGStab:  Solving for ILambda_2_0, Initial residual = 0.03467019, Final residual = 3.166159e-17, No Iterations 1
DILUPBiCGStab:  Solving for ILambda_3_0, Initial residual = 0.03065356, Final residual = 3.324056e-17, No Iterations 1
DILUPBiCGStab:  Solving for ILambda_4_0, Initial residual = 0.04126776, Final residual = 0.002272385, No Iterations 3
DILUPBiCGStab:  Solving for ILambda_5_0, Initial residual = 0.04699273, Final residual = 0.004445205, No Iterations 5
DILUPBiCGStab:  Solving for ILambda_6_0, Initial residual = 0.03879367, Final residual = 0.002443321, No Iterations 6
DILUPBiCGStab:  Solving for ILambda_7_0, Initial residual = 0.03042399, Final residual = 0.001646431, No Iterations 9
DILUPBiCGStab:  Solving for ILambda_8_0, Initial residual = 0.01436958, Final residual = 2.061255e-17, No Iterations 1
DILUPBiCGStab:  Solving for ILambda_9_0, Initial residual = 0.01691977, Final residual = 2.365734e-17, No Iterations 1
DILUPBiCGStab:  Solving for ILambda_10_0, Initial residual = 0.01769132, Final residual = 3.11203e-17, No Iterations 1
DILUPBiCGStab:  Solving for ILambda_11_0, Initial residual = 0.01632004, Final residual = 4.405529e-17, No Iterations 1
DILUPBiCGStab:  Solving for ILambda_12_0, Initial residual = 0.01773869, Final residual = 0.0008158572, No Iterations 4
DILUPBiCGStab:  Solving for ILambda_13_0, Initial residual = 0.02481031, Final residual = 0.001541409, No Iterations 8
DILUPBiCGStab:  Solving for ILambda_14_0, Initial residual = 0.02468329, Final residual = 0.001473842, No Iterations 12
DILUPBiCGStab:  Solving for ILambda_15_0, Initial residual = 0.02453134, Final residual = 0.002150526, No Iterations 11
Radiation solver iter: 3
DILUPBiCGStab:  Solving for ILambda_0_0, Initial residual = 0.02068202, Final residual = 3.28156e-17, No Iterations 1
DILUPBiCGStab:  Solving for ILambda_1_0, Initial residual = 0.02167282, Final residual = 1.737753e-17, No Iterations 1
DILUPBiCGStab:  Solving for ILambda_2_0, Initial residual = 0.02319781, Final residual = 2.175746e-17, No Iterations 1
DILUPBiCGStab:  Solving for ILambda_3_0, Initial residual = 0.01492433, Final residual = 1.423619e-17, No Iterations 1
DILUPBiCGStab:  Solving for ILambda_4_0, Initial residual = 0.01973322, Final residual = 0.001172722, No Iterations 2
DILUPBiCGStab:  Solving for ILambda_5_0, Initial residual = 0.03341565, Final residual = 0.003207218, No Iterations 3
DILUPBiCGStab:  Solving for ILambda_6_0, Initial residual = 0.03116206, Final residual = 0.001513319, No Iterations 5
DILUPBiCGStab:  Solving for ILambda_7_0, Initial residual = 0.02279122, Final residual = 0.001869625, No Iterations 6
DILUPBiCGStab:  Solving for ILambda_8_0, Initial residual = 0.01140434, Final residual = 1.242044e-17, No Iterations 1
DILUPBiCGStab:  Solving for ILambda_9_0, Initial residual = 0.01487937, Final residual = 1.84181e-17, No Iterations 1
DILUPBiCGStab:  Solving for ILambda_10_0, Initial residual = 0.01560493, Final residual = 2.573036e-17, No Iterations 1
DILUPBiCGStab:  Solving for ILambda_11_0, Initial residual = 0.01207821, Final residual = 2.911692e-17, No Iterations 1
DILUPBiCGStab:  Solving for ILambda_12_0, Initial residual = 0.01260779, Final residual = 0.000790714, No Iterations 4
DILUPBiCGStab:  Solving for ILambda_13_0, Initial residual = 0.01780046, Final residual = 0.001120947, No Iterations 8
DILUPBiCGStab:  Solving for ILambda_14_0, Initial residual = 0.018992, Final residual = 0.001277705, No Iterations 11
DILUPBiCGStab:  Solving for ILambda_15_0, Initial residual = 0.01963023, Final residual = 0.001562255, No Iterations 12
Radiation solver iter: 4
DILUPBiCGStab:  Solving for ILambda_0_0, Initial residual = 0.01776488, Final residual = 2.707122e-17, No Iterations 1
DILUPBiCGStab:  Solving for ILambda_1_0, Initial residual = 0.01717448, Final residual = 1.424561e-17, No Iterations 1
DILUPBiCGStab:  Solving for ILambda_2_0, Initial residual = 0.01665801, Final residual = 1.166197e-17, No Iterations 1
DILUPBiCGStab:  Solving for ILambda_3_0, Initial residual = 0.006673746, Final residual = 5.205485e-18, No Iterations 1
DILUPBiCGStab:  Solving for ILambda_4_0, Initial residual = 0.008466998, Final residual = 0.0007161425, No Iterations 2
DILUPBiCGStab:  Solving for ILambda_5_0, Initial residual = 0.02489718, Final residual = 0.00148932, No Iterations 5
DILUPBiCGStab:  Solving for ILambda_6_0, Initial residual = 0.02582016, Final residual = 0.001754875, No Iterations 3
DILUPBiCGStab:  Solving for ILambda_7_0, Initial residual = 0.01844715, Final residual = 0.001131091, No Iterations 6
DILUPBiCGStab:  Solving for ILambda_8_0, Initial residual = 0.009900785, Final residual = 1.079812e-17, No Iterations 1
DILUPBiCGStab:  Solving for ILambda_9_0, Initial residual = 0.01346163, Final residual = 1.526146e-17, No Iterations 1
DILUPBiCGStab:  Solving for ILambda_10_0, Initial residual = 0.01353106, Final residual = 1.751994e-17, No Iterations 1
DILUPBiCGStab:  Solving for ILambda_11_0, Initial residual = 0.008887882, Final residual = 1.926623e-17, No Iterations 1
DILUPBiCGStab:  Solving for ILambda_12_0, Initial residual = 0.008932287, Final residual = 0.0007434332, No Iterations 4
DILUPBiCGStab:  Solving for ILambda_13_0, Initial residual = 0.01500736, Final residual = 0.001406147, No Iterations 7
DILUPBiCGStab:  Solving for ILambda_14_0, Initial residual = 0.01677811, Final residual = 0.00157699, No Iterations 10
DILUPBiCGStab:  Solving for ILambda_15_0, Initial residual = 0.01680907, Final residual = 0.001589967, No Iterations 7
Radiation solver iter: 5
DILUPBiCGStab:  Solving for ILambda_0_0, Initial residual = 0.01531189, Final residual = 2.129203e-17, No Iterations 1
DILUPBiCGStab:  Solving for ILambda_1_0, Initial residual = 0.01399842, Final residual = 8.851575e-18, No Iterations 1
DILUPBiCGStab:  Solving for ILambda_2_0, Initial residual = 0.0121316, Final residual = 8.046841e-18, No Iterations 1
DILUPBiCGStab:  Solving for ILambda_3_0, Initial residual = 0.002868241, Final residual = 2.305287e-18, No Iterations 1
DILUPBiCGStab:  Solving for ILambda_4_0, Initial residual = 0.003614335, Final residual = 0.0002571272, No Iterations 2
DILUPBiCGStab:  Solving for ILambda_5_0, Initial residual = 0.01726581, Final residual = 0.001446947, No Iterations 3
DILUPBiCGStab:  Solving for ILambda_6_0, Initial residual = 0.02137511, Final residual = 0.00156895, No Iterations 3
DILUPBiCGStab:  Solving for ILambda_7_0, Initial residual = 0.01509378, Final residual = 0.001426389, No Iterations 4
DILUPBiCGStab:  Solving for ILambda_8_0, Initial residual = 0.008579449, Final residual = 8.393749e-18, No Iterations 1
DILUPBiCGStab:  Solving for ILambda_9_0, Initial residual = 0.01189916, Final residual = 1.163809e-17, No Iterations 1
DILUPBiCGStab:  Solving for ILambda_10_0, Initial residual = 0.01103771, Final residual = 1.278215e-17, No Iterations 1
DILUPBiCGStab:  Solving for ILambda_11_0, Initial residual = 0.006342552, Final residual = 1.499679e-17, No Iterations 1
DILUPBiCGStab:  Solving for ILambda_12_0, Initial residual = 0.006333807, Final residual = 0.0004773956, No Iterations 3
DILUPBiCGStab:  Solving for ILambda_13_0, Initial residual = 0.01182247, Final residual = 0.001152212, No Iterations 5
DILUPBiCGStab:  Solving for ILambda_14_0, Initial residual = 0.01425001, Final residual = 0.001351406, No Iterations 8
DILUPBiCGStab:  Solving for ILambda_15_0, Initial residual = 0.01447183, Final residual = 0.0008199237, No Iterations 9
Radiation solver iter: 6
DILUPBiCGStab:  Solving for ILambda_0_0, Initial residual = 0.01300086, Final residual = 1.661775e-17, No Iterations 1
DILUPBiCGStab:  Solving for ILambda_1_0, Initial residual = 0.01130812, Final residual = 7.158432e-18, No Iterations 1
DILUPBiCGStab:  Solving for ILambda_2_0, Initial residual = 0.008650348, Final residual = 4.899138e-18, No Iterations 1
DILUPBiCGStab:  Solving for ILambda_3_0, Initial residual = 0.001156626, Final residual = 7.402586e-19, No Iterations 1
DILUPBiCGStab:  Solving for ILambda_4_0, Initial residual = 0.001389826, Final residual = 9.649546e-05, No Iterations 2
DILUPBiCGStab:  Solving for ILambda_5_0, Initial residual = 0.01201106, Final residual = 0.001056415, No Iterations 3
DILUPBiCGStab:  Solving for ILambda_6_0, Initial residual = 0.01756118, Final residual = 0.001087096, No Iterations 4
DILUPBiCGStab:  Solving for ILambda_7_0, Initial residual = 0.01271603, Final residual = 0.001082934, No Iterations 5
DILUPBiCGStab:  Solving for ILambda_8_0, Initial residual = 0.007442595, Final residual = 6.09088e-18, No Iterations 1
DILUPBiCGStab:  Solving for ILambda_9_0, Initial residual = 0.01057677, Final residual = 1.01354e-17, No Iterations 1
DILUPBiCGStab:  Solving for ILambda_10_0, Initial residual = 0.008992991, Final residual = 1.022015e-17, No Iterations 1
DILUPBiCGStab:  Solving for ILambda_11_0, Initial residual = 0.005048012, Final residual = 1.133504e-17, No Iterations 1
DILUPBiCGStab:  Solving for ILambda_12_0, Initial residual = 0.005246653, Final residual = 0.0004331695, No Iterations 3
DILUPBiCGStab:  Solving for ILambda_13_0, Initial residual = 0.009477643, Final residual = 0.000901466, No Iterations 6
DILUPBiCGStab:  Solving for ILambda_14_0, Initial residual = 0.0121596, Final residual = 0.0009655812, No Iterations 6
DILUPBiCGStab:  Solving for ILambda_15_0, Initial residual = 0.01238659, Final residual = 0.0006518644, No Iterations 9
Radiation solver iter: 7
DILUPBiCGStab:  Solving for ILambda_0_0, Initial residual = 0.01095052, Final residual = 1.332683e-17, No Iterations 1
DILUPBiCGStab:  Solving for ILambda_1_0, Initial residual = 0.009000126, Final residual = 6.98916e-18, No Iterations 1
DILUPBiCGStab:  Solving for ILambda_2_0, Initial residual = 0.005883256, Final residual = 3.235382e-18, No Iterations 1
DILUPBiCGStab:  Solving for ILambda_3_0, Initial residual = 0.0004257619, Final residual = 3.355314e-19, No Iterations 1
DILUPBiCGStab:  Solving for ILambda_4_0, Initial residual = 0.0005157906, Final residual = 8.779457e-05, No Iterations 1
DILUPBiCGStab:  Solving for ILambda_5_0, Initial residual = 0.0078275, Final residual = 0.0007459385, No Iterations 3
DILUPBiCGStab:  Solving for ILambda_6_0, Initial residual = 0.01405114, Final residual = 0.001122227, No Iterations 3
DILUPBiCGStab:  Solving for ILambda_7_0, Initial residual = 0.01070201, Final residual = 0.0006228491, No Iterations 4
DILUPBiCGStab:  Solving for ILambda_8_0, Initial residual = 0.006400988, Final residual = 4.801466e-18, No Iterations 1
DILUPBiCGStab:  Solving for ILambda_9_0, Initial residual = 0.009327448, Final residual = 7.122179e-18, No Iterations 1
DILUPBiCGStab:  Solving for ILambda_10_0, Initial residual = 0.00726652, Final residual = 7.608152e-18, No Iterations 1
DILUPBiCGStab:  Solving for ILambda_11_0, Initial residual = 0.00395097, Final residual = 8.874637e-18, No Iterations 1
DILUPBiCGStab:  Solving for ILambda_12_0, Initial residual = 0.004141392, Final residual = 0.0003873591, No Iterations 4
DILUPBiCGStab:  Solving for ILambda_13_0, Initial residual = 0.007591775, Final residual = 0.000717637, No Iterations 5
DILUPBiCGStab:  Solving for ILambda_14_0, Initial residual = 0.01024836, Final residual = 0.0009402594, No Iterations 6
DILUPBiCGStab:  Solving for ILambda_15_0, Initial residual = 0.0105177, Final residual = 0.0003542654, No Iterations 9
Radiation solver iter: 8
DILUPBiCGStab:  Solving for ILambda_0_0, Initial residual = 0.009201535, Final residual = 1.13551e-17, No Iterations 1
DILUPBiCGStab:  Solving for ILambda_1_0, Initial residual = 0.007092194, Final residual = 4.490113e-18, No Iterations 1
DILUPBiCGStab:  Solving for ILambda_2_0, Initial residual = 0.003828709, Final residual = 1.983695e-18, No Iterations 1
DILUPBiCGStab:  Solving for ILambda_5_0, Initial residual = 0.004830421, Final residual = 0.0003924882, No Iterations 2
DILUPBiCGStab:  Solving for ILambda_6_0, Initial residual = 0.01116364, Final residual = 0.001084652, No Iterations 3
DILUPBiCGStab:  Solving for ILambda_7_0, Initial residual = 0.009009503, Final residual = 0.0006859994, No Iterations 3
DILUPBiCGStab:  Solving for ILambda_8_0, Initial residual = 0.005456879, Final residual = 3.833994e-18, No Iterations 1
DILUPBiCGStab:  Solving for ILambda_9_0, Initial residual = 0.008157243, Final residual = 6.303288e-18, No Iterations 1
DILUPBiCGStab:  Solving for ILambda_10_0, Initial residual = 0.005826268, Final residual = 6.14857e-18, No Iterations 1
DILUPBiCGStab:  Solving for ILambda_11_0, Initial residual = 0.002943404, Final residual = 6.426419e-18, No Iterations 1
DILUPBiCGStab:  Solving for ILambda_12_0, Initial residual = 0.003085145, Final residual = 0.0001911612, No Iterations 4
DILUPBiCGStab:  Solving for ILambda_13_0, Initial residual = 0.006202126, Final residual = 0.0004559478, No Iterations 6
DILUPBiCGStab:  Solving for ILambda_14_0, Initial residual = 0.008763946, Final residual = 0.000796099, No Iterations 6
DILUPBiCGStab:  Solving for ILambda_15_0, Initial residual = 0.008874177, Final residual = 0.0008293555, No Iterations 5
Radiation solver iter: 9
DILUPBiCGStab:  Solving for ILambda_0_0, Initial residual = 0.007669812, Final residual = 7.572476e-18, No Iterations 1
DILUPBiCGStab:  Solving for ILambda_1_0, Initial residual = 0.005600352, Final residual = 2.855788e-18, No Iterations 1
DILUPBiCGStab:  Solving for ILambda_2_0, Initial residual = 0.002402177, Final residual = 1.165055e-18, No Iterations 1
DILUPBiCGStab:  Solving for ILambda_5_0, Initial residual = 0.002869422, Final residual = 0.0001927354, No Iterations 2
DILUPBiCGStab:  Solving for ILambda_6_0, Initial residual = 0.008870951, Final residual = 0.0006827966, No Iterations 2
DILUPBiCGStab:  Solving for ILambda_7_0, Initial residual = 0.007651934, Final residual = 0.0003201696, No Iterations 4
DILUPBiCGStab:  Solving for ILambda_8_0, Initial residual = 0.00465683, Final residual = 3.374983e-18, No Iterations 1
DILUPBiCGStab:  Solving for ILambda_9_0, Initial residual = 0.007056504, Final residual = 5.270326e-18, No Iterations 1
DILUPBiCGStab:  Solving for ILambda_10_0, Initial residual = 0.004653106, Final residual = 4.910348e-18, No Iterations 1
DILUPBiCGStab:  Solving for ILambda_11_0, Initial residual = 0.002193933, Final residual = 4.955693e-18, No Iterations 1
DILUPBiCGStab:  Solving for ILambda_12_0, Initial residual = 0.002288806, Final residual = 0.0001386419, No Iterations 4
DILUPBiCGStab:  Solving for ILambda_13_0, Initial residual = 0.005028932, Final residual = 0.0003752495, No Iterations 6
DILUPBiCGStab:  Solving for ILambda_14_0, Initial residual = 0.007476323, Final residual = 0.0007461947, No Iterations 4
DILUPBiCGStab:  Solving for ILambda_15_0, Initial residual = 0.007601436, Final residual = 0.0007105553, No Iterations 5
Radiation solver iter: 10
DILUPBiCGStab:  Solving for ILambda_0_0, Initial residual = 0.006309531, Final residual = 6.344916e-18, No Iterations 1
DILUPBiCGStab:  Solving for ILambda_1_0, Initial residual = 0.004438654, Final residual = 1.812127e-18, No Iterations 1
DILUPBiCGStab:  Solving for ILambda_2_0, Initial residual = 0.001458977, Final residual = 7.962445e-19, No Iterations 1
DILUPBiCGStab:  Solving for ILambda_5_0, Initial residual = 0.001649782, Final residual = 9.882298e-05, No Iterations 2
DILUPBiCGStab:  Solving for ILambda_6_0, Initial residual = 0.00698692, Final residual = 0.0005028117, No Iterations 2
DILUPBiCGStab:  Solving for ILambda_7_0, Initial residual = 0.006439136, Final residual = 0.0005774963, No Iterations 2
DILUPBiCGStab:  Solving for ILambda_8_0, Initial residual = 0.003983336, Final residual = 2.425393e-18, No Iterations 1
DILUPBiCGStab:  Solving for ILambda_9_0, Initial residual = 0.006039157, Final residual = 4.047845e-18, No Iterations 1
DILUPBiCGStab:  Solving for ILambda_10_0, Initial residual = 0.003706972, Final residual = 3.791742e-18, No Iterations 1
DILUPBiCGStab:  Solving for ILambda_11_0, Initial residual = 0.001686756, Final residual = 3.731269e-18, No Iterations 1
DILUPBiCGStab:  Solving for ILambda_12_0, Initial residual = 0.00177565, Final residual = 7.740085e-05, No Iterations 4
DILUPBiCGStab:  Solving for ILambda_13_0, Initial residual = 0.004049623, Final residual = 0.0001298832, No Iterations 8
DILUPBiCGStab:  Solving for ILambda_14_0, Initial residual = 0.006404192, Final residual = 0.0006269271, No Iterations 4
DILUPBiCGStab:  Solving for ILambda_15_0, Initial residual = 0.006437362, Final residual = 0.0005069399, No Iterations 5
Radiation solver iter: 11
DILUPBiCGStab:  Solving for ILambda_0_0, Initial residual = 0.00514329, Final residual = 4.869593e-18, No Iterations 1
DILUPBiCGStab:  Solving for ILambda_1_0, Initial residual = 0.003524921, Final residual = 1.375849e-18, No Iterations 1
DILUPBiCGStab:  Solving for ILambda_2_0, Initial residual = 0.0008584448, Final residual = 4.860862e-19, No Iterations 1
DILUPBiCGStab:  Solving for ILambda_5_0, Initial residual = 0.0009179641, Final residual = 9.87578e-05, No Iterations 2
DILUPBiCGStab:  Solving for ILambda_6_0, Initial residual = 0.005418251, Final residual = 0.0003900733, No Iterations 2
DILUPBiCGStab:  Solving for ILambda_7_0, Initial residual = 0.0054774, Final residual = 0.0004628288, No Iterations 3
DILUPBiCGStab:  Solving for ILambda_8_0, Initial residual = 0.003413773, Final residual = 2.270269e-18, No Iterations 1
DILUPBiCGStab:  Solving for ILambda_9_0, Initial residual = 0.005108935, Final residual = 3.503316e-18, No Iterations 1
DILUPBiCGStab:  Solving for ILambda_10_0, Initial residual = 0.002928108, Final residual = 3.017448e-18, No Iterations 1
DILUPBiCGStab:  Solving for ILambda_11_0, Initial residual = 0.001305412, Final residual = 2.828363e-18, No Iterations 1
DILUPBiCGStab:  Solving for ILambda_12_0, Initial residual = 0.00137758, Final residual = 4.64182e-05, No Iterations 4
DILUPBiCGStab:  Solving for ILambda_13_0, Initial residual = 0.003194208, Final residual = 0.0002796849, No Iterations 5
DILUPBiCGStab:  Solving for ILambda_14_0, Initial residual = 0.005434519, Final residual = 0.0004509652, No Iterations 4
DILUPBiCGStab:  Solving for ILambda_15_0, Initial residual = 0.005470862, Final residual = 0.0004273564, No Iterations 4
Radiation solver iter: 12
DILUPBiCGStab:  Solving for ILambda_0_0, Initial residual = 0.004166938, Final residual = 3.795352e-18, No Iterations 1
DILUPBiCGStab:  Solving for ILambda_1_0, Initial residual = 0.002785391, Final residual = 1.201273e-18, No Iterations 1
DILUPBiCGStab:  Solving for ILambda_6_0, Initial residual = 0.004148928, Final residual = 0.0002555424, No Iterations 2
DILUPBiCGStab:  Solving for ILambda_7_0, Initial residual = 0.004638854, Final residual = 0.0001749349, No Iterations 4
DILUPBiCGStab:  Solving for ILambda_8_0, Initial residual = 0.002934114, Final residual = 1.902311e-18, No Iterations 1
DILUPBiCGStab:  Solving for ILambda_9_0, Initial residual = 0.004264044, Final residual = 3.233796e-18, No Iterations 1
DILUPBiCGStab:  Solving for ILambda_10_0, Initial residual = 0.002279911, Final residual = 2.293062e-18, No Iterations 1
DILUPBiCGStab:  Solving for ILambda_11_0, Initial residual = 0.0009992543, Final residual = 2.227641e-18, No Iterations 1
DILUPBiCGStab:  Solving for ILambda_12_0, Initial residual = 0.001052899, Final residual = 3.535243e-05, No Iterations 4
DILUPBiCGStab:  Solving for ILambda_13_0, Initial residual = 0.002583405, Final residual = 6.602748e-05, No Iterations 8
DILUPBiCGStab:  Solving for ILambda_14_0, Initial residual = 0.004582018, Final residual = 0.0004386668, No Iterations 4
DILUPBiCGStab:  Solving for ILambda_15_0, Initial residual = 0.004664167, Final residual = 0.0003656264, No Iterations 4
Radiation solver iter: 13
DILUPBiCGStab:  Solving for ILambda_0_0, Initial residual = 0.003359635, Final residual = 2.614199e-18, No Iterations 1
DILUPBiCGStab:  Solving for ILambda_1_0, Initial residual = 0.002166635, Final residual = 9.809948e-19, No Iterations 1
DILUPBiCGStab:  Solving for ILambda_6_0, Initial residual = 0.003100573, Final residual = 0.0003030419, No Iterations 2
DILUPBiCGStab:  Solving for ILambda_7_0, Initial residual = 0.003869814, Final residual = 0.0002695257, No Iterations 2
DILUPBiCGStab:  Solving for ILambda_8_0, Initial residual = 0.002532301, Final residual = 1.621998e-18, No Iterations 1
DILUPBiCGStab:  Solving for ILambda_9_0, Initial residual = 0.003539779, Final residual = 2.463803e-18, No Iterations 1
DILUPBiCGStab:  Solving for ILambda_10_0, Initial residual = 0.001769476, Final residual = 1.816778e-18, No Iterations 1
DILUPBiCGStab:  Solving for ILambda_12_0, Initial residual = 0.0008228101, Final residual = 2.706257e-05, No Iterations 4
DILUPBiCGStab:  Solving for ILambda_13_0, Initial residual = 0.001976977, Final residual = 0.0001559461, No Iterations 6
DILUPBiCGStab:  Solving for ILambda_14_0, Initial residual = 0.003826072, Final residual = 0.000311324, No Iterations 4
DILUPBiCGStab:  Solving for ILambda_15_0, Initial residual = 0.003978586, Final residual = 0.0001485569, No Iterations 5
Radiation solver iter: 14
DILUPBiCGStab:  Solving for ILambda_0_0, Initial residual = 0.002705537, Final residual = 2.165847e-18, No Iterations 1
DILUPBiCGStab:  Solving for ILambda_1_0, Initial residual = 0.001658244, Final residual = 6.784893e-19, No Iterations 1
DILUPBiCGStab:  Solving for ILambda_6_0, Initial residual = 0.002287454, Final residual = 0.0001936918, No Iterations 2
DILUPBiCGStab:  Solving for ILambda_7_0, Initial residual = 0.003256491, Final residual = 0.000275845, No Iterations 2
DILUPBiCGStab:  Solving for ILambda_8_0, Initial residual = 0.002181536, Final residual = 1.36559e-18, No Iterations 1
DILUPBiCGStab:  Solving for ILambda_9_0, Initial residual = 0.002912852, Final residual = 1.981411e-18, No Iterations 1
DILUPBiCGStab:  Solving for ILambda_10_0, Initial residual = 0.001376899, Final residual = 1.366313e-18, No Iterations 1
DILUPBiCGStab:  Solving for ILambda_13_0, Initial residual = 0.00157458, Final residual = 8.085603e-05, No Iterations 6
DILUPBiCGStab:  Solving for ILambda_14_0, Initial residual = 0.003149479, Final residual = 0.0001832019, No Iterations 6
DILUPBiCGStab:  Solving for ILambda_15_0, Initial residual = 0.003342577, Final residual = 0.0002565007, No Iterations 3
GAMG:  Solving for p_rgh, Initial residual = 0.03858893, Final residual = 6.534532e-05, No Iterations 2
limitVelocity limitU Limited 0 (0%) of cells, with max limit 5
time step continuity errors : sum local = 0.0003427577, global = -1.901531e-17, cumulative = 1.951999e-15
rho min/max : 0.5191013 0.950859
DILUPBiCGStab:  Solving for omega, Initial residual = 0.0002373917, Final residual = 7.894326e-06, No Iterations 1
DILUPBiCGStab:  Solving for k, Initial residual = 0.0003823682, Final residual = 1.996031e-05, No Iterations 1
ExecutionTime = 0.61 s  ClockTime = 1 s

Time = 4202

DILUPBiCGStab:  Solving for h, Initial residual = 8.985026e-05, Final residual = 2.732317e-09, No Iterations 1
limitTemperature limitT Lower limited 0 (0%) of cells, with min limit 280
limitTemperature limitT Upper limited 0 (0%) of cells, with max limit 1200
limitTemperature limitT Unlimited Tmin 416.6495
limitTemperature limitT Unlimited Tmax 502.2858
GAMG:  Solving for p_rgh, Initial residual = 0.03062464, Final residual = 5.43735e-05, No Iterations 2
limitVelocity limitU Limited 0 (0%) of cells, with max limit 5
time step continuity errors : sum local = 0.0003043781, global = 1.843204e-17, cumulative = 1.970431e-15
rho min/max : 0.560527 0.948938
DILUPBiCGStab:  Solving for omega, Initial residual = 0.0002210734, Final residual = 8.562491e-06, No Iterations 1
DILUPBiCGStab:  Solving for k, Initial residual = 0.0003619262, Final residual = 2.117261e-05, No Iterations 1
ExecutionTime = 0.63 s  ClockTime = 1 s

Time = 4203

DILUPBiCGStab:  Solving for h, Initial residual = 8.276273e-05, Final residual = 2.031792e-09, No Iterations 1
limitTemperature limitT Lower limited 0 (0%) of cells, with min limit 280
limitTemperature limitT Upper limited 0 (0%) of cells, with max limit 1200
limitTemperature limitT Unlimited Tmin 416.6532
limitTemperature limitT Unlimited Tmax 502.363
Radiation solver iter: 0
DILUPBiCGStab:  Solving for ILambda_0_0, Initial residual = 0.1690474, Final residual = 1.51211e-15, No Iterations 1
DILUPBiCGStab:  Solving for ILambda_1_0, Initial residual = 0.3217318, Final residual = 2.160783e-15, No Iterations 1
DILUPBiCGStab:  Solving for ILambda_2_0, Initial residual = 0.4639452, Final residual = 2.592621e-15, No Iterations 1
DILUPBiCGStab:  Solving for ILambda_3_0, Initial residual = 0.6316235, Final residual = 3.476663e-15, No Iterations 1
DILUPBiCGStab:  Solving for ILambda_4_0, Initial residual = 0.6437542, Final residual = 0.02462441, No Iterations 4
DILUPBiCGStab:  Solving for ILambda_5_0, Initial residual = 0.4874892, Final residual = 0.02149808, No Iterations 10
DILUPBiCGStab:  Solving for ILambda_6_0, Initial residual = 0.3542505, Final residual = 0.008394732, No Iterations 19
DILUPBiCGStab:  Solving for ILambda_7_0, Initial residual = 0.2188991, Final residual = 0.01941696, No Iterations 31
DILUPBiCGStab:  Solving for ILambda_8_0, Initial residual = 0.2296298, Final residual = 2.020743e-15, No Iterations 1
DILUPBiCGStab:  Solving for ILambda_9_0, Initial residual = 0.3594511, Final residual = 2.332584e-15, No Iterations 1
DILUPBiCGStab:  Solving for ILambda_10_0, Initial residual = 0.4702718, Final residual = 2.435014e-15, No Iterations 1
DILUPBiCGStab:  Solving for ILambda_11_0, Initial residual = 0.5903383, Final residual = 2.642335e-15, No Iterations 1
DILUPBiCGStab:  Solving for ILambda_12_0, Initial residual = 0.6305758, Final residual = 0.0346299, No Iterations 6
DILUPBiCGStab:  Solving for ILambda_13_0, Initial residual = 0.5481612, Final residual = 0.0005313931, No Iterations 12
DILUPBiCGStab:  Solving for ILambda_14_0, Initial residual = 0.4593727, Final residual = 0.04193702, No Iterations 16
DILUPBiCGStab:  Solving for ILambda_15_0, Initial residual = 0.36636, Final residual = 0.0133538, No Iterations 30
Radiation solver iter: 1
DILUPBiCGStab:  Solving for ILambda_0_0, Initial residual = 0.07904531, Final residual = 1.7922e-16, No Iterations 1
DILUPBiCGStab:  Solving for ILambda_1_0, Initial residual = 0.1284249, Final residual = 2.836114e-16, No Iterations 1
DILUPBiCGStab:  Solving for ILambda_2_0, Initial residual = 0.1601425, Final residual = 2.944744e-16, No Iterations 1
DILUPBiCGStab:  Solving for ILambda_3_0, Initial residual = 0.1705638, Final residual = 4.024696e-16, No Iterations 1
DILUPBiCGStab:  Solving for ILambda_4_0, Initial residual = 0.2049434, Final residual = 0.01674111, No Iterations 4
DILUPBiCGStab:  Solving for ILambda_5_0, Initial residual = 0.181761, Final residual = 0.01559969, No Iterations 7
DILUPBiCGStab:  Solving for ILambda_6_0, Initial residual = 0.1368938, Final residual = 0.006652824, No Iterations 11
DILUPBiCGStab:  Solving for ILambda_7_0, Initial residual = 0.1067774, Final residual = 0.01060953, No Iterations 15
DILUPBiCGStab:  Solving for ILambda_8_0, Initial residual = 0.02715813, Final residual = 1.220275e-16, No Iterations 1
DILUPBiCGStab:  Solving for ILambda_9_0, Initial residual = 0.03935325, Final residual = 1.494477e-16, No Iterations 1
DILUPBiCGStab:  Solving for ILambda_10_0, Initial residual = 0.05126757, Final residual = 1.808785e-16, No Iterations 1
DILUPBiCGStab:  Solving for ILambda_11_0, Initial residual = 0.06526652, Final residual = 2.738563e-16, No Iterations 1
DILUPBiCGStab:  Solving for ILambda_12_0, Initial residual = 0.143888, Final residual = 0.003688092, No Iterations 4
DILUPBiCGStab:  Solving for ILambda_13_0, Initial residual = 0.07416517, Final residual = 0.001267877, No Iterations 10
DILUPBiCGStab:  Solving for ILambda_14_0, Initial residual = 0.1330032, Final residual = 0.01098526, No Iterations 13
DILUPBiCGStab:  Solving for ILambda_15_0, Initial residual = 0.07944296, Final residual = 0.007201323, No Iterations 23
Radiation solver iter: 2
DILUPBiCGStab:  Solving for ILambda_0_0, Initial residual = 0.06673482, Final residual = 1.1136e-16, No Iterations 1
DILUPBiCGStab:  Solving for ILambda_1_0, Initial residual = 0.0945804, Final residual = 1.077142e-16, No Iterations 1
DILUPBiCGStab:  Solving for ILambda_2_0, Initial residual = 0.1095624, Final residual = 1.060753e-16, No Iterations 1
DILUPBiCGStab:  Solving for ILambda_3_0, Initial residual = 0.08978745, Final residual = 1.100838e-16, No Iterations 1
DILUPBiCGStab:  Solving for ILambda_4_0, Initial residual = 0.09880125, Final residual = 0.004591373, No Iterations 3
DILUPBiCGStab:  Solving for ILambda_5_0, Initial residual = 0.112779, Final residual = 0.008931019, No Iterations 4
DILUPBiCGStab:  Solving for ILambda_6_0, Initial residual = 0.09303132, Final residual = 0.004792728, No Iterations 6
DILUPBiCGStab:  Solving for ILambda_7_0, Initial residual = 0.06491388, Final residual = 0.004634469, No Iterations 10
DILUPBiCGStab:  Solving for ILambda_8_0, Initial residual = 0.01509885, Final residual = 2.144937e-17, No Iterations 1
DILUPBiCGStab:  Solving for ILambda_9_0, Initial residual = 0.0233919, Final residual = 3.930915e-17, No Iterations 1
DILUPBiCGStab:  Solving for ILambda_10_0, Initial residual = 0.02945523, Final residual = 5.645641e-17, No Iterations 1
DILUPBiCGStab:  Solving for ILambda_11_0, Initial residual = 0.03119364, Final residual = 8.379675e-17, No Iterations 1
DILUPBiCGStab:  Solving for ILambda_12_0, Initial residual = 0.04006935, Final residual = 0.003223747, No Iterations 3
DILUPBiCGStab:  Solving for ILambda_13_0, Initial residual = 0.04429884, Final residual = 0.004290916, No Iterations 8
DILUPBiCGStab:  Solving for ILambda_14_0, Initial residual = 0.05222531, Final residual = 0.001834824, No Iterations 15
DILUPBiCGStab:  Solving for ILambda_15_0, Initial residual = 0.04693375, Final residual = 0.004403065, No Iterations 13
Radiation solver iter: 3
DILUPBiCGStab:  Solving for ILambda_0_0, Initial residual = 0.06006226, Final residual = 9.867768e-17, No Iterations 1
DILUPBiCGStab:  Solving for ILambda_1_0, Initial residual = 0.07313922, Final residual = 6.323828e-17, No Iterations 1
DILUPBiCGStab:  Solving for ILambda_2_0, Initial residual = 0.07489164, Final residual = 5.925863e-17, No Iterations 1
DILUPBiCGStab:  Solving for ILambda_3_0, Initial residual = 0.04352599, Final residual = 3.983432e-17, No Iterations 1
DILUPBiCGStab:  Solving for ILambda_4_0, Initial residual = 0.04568004, Final residual = 0.00286855, No Iterations 2
DILUPBiCGStab:  Solving for ILambda_5_0, Initial residual = 0.08008947, Final residual = 0.00760902, No Iterations 3
DILUPBiCGStab:  Solving for ILambda_6_0, Initial residual = 0.0706689, Final residual = 0.007002623, No Iterations 3
DILUPBiCGStab:  Solving for ILambda_7_0, Initial residual = 0.0434, Final residual = 0.003721119, No Iterations 6
DILUPBiCGStab:  Solving for ILambda_8_0, Initial residual = 0.0127581, Final residual = 1.539325e-17, No Iterations 1
DILUPBiCGStab:  Solving for ILambda_9_0, Initial residual = 0.02084942, Final residual = 2.521071e-17, No Iterations 1
DILUPBiCGStab:  Solving for ILambda_10_0, Initial residual = 0.02501558, Final residual = 3.531486e-17, No Iterations 1
DILUPBiCGStab:  Solving for ILambda_11_0, Initial residual = 0.02125594, Final residual = 4.623588e-17, No Iterations 1
DILUPBiCGStab:  Solving for ILambda_12_0, Initial residual = 0.02664437, Final residual = 0.001419186, No Iterations 4
DILUPBiCGStab:  Solving for ILambda_13_0, Initial residual = 0.03874756, Final residual = 0.003788174, No Iterations 6
DILUPBiCGStab:  Solving for ILambda_14_0, Initial residual = 0.03937302, Final residual = 0.003000094, No Iterations 11
DILUPBiCGStab:  Solving for ILambda_15_0, Initial residual = 0.03828337, Final residual = 0.00320504, No Iterations 9
Radiation solver iter: 4
DILUPBiCGStab:  Solving for ILambda_0_0, Initial residual = 0.05419537, Final residual = 7.78191e-17, No Iterations 1
DILUPBiCGStab:  Solving for ILambda_1_0, Initial residual = 0.05876516, Final residual = 5.368613e-17, No Iterations 1
DILUPBiCGStab:  Solving for ILambda_2_0, Initial residual = 0.05313253, Final residual = 3.910976e-17, No Iterations 1
DILUPBiCGStab:  Solving for ILambda_3_0, Initial residual = 0.01924135, Final residual = 1.48955e-17, No Iterations 1
DILUPBiCGStab:  Solving for ILambda_4_0, Initial residual = 0.01970189, Final residual = 0.001661654, No Iterations 2
DILUPBiCGStab:  Solving for ILambda_5_0, Initial residual = 0.05844667, Final residual = 0.005530099, No Iterations 3
DILUPBiCGStab:  Solving for ILambda_6_0, Initial residual = 0.05689475, Final residual = 0.004680273, No Iterations 3
DILUPBiCGStab:  Solving for ILambda_7_0, Initial residual = 0.03159529, Final residual = 0.002276495, No Iterations 5
DILUPBiCGStab:  Solving for ILambda_8_0, Initial residual = 0.01126122, Final residual = 1.093761e-17, No Iterations 1
DILUPBiCGStab:  Solving for ILambda_9_0, Initial residual = 0.01918138, Final residual = 1.973275e-17, No Iterations 1
DILUPBiCGStab:  Solving for ILambda_10_0, Initial residual = 0.02179905, Final residual = 2.612687e-17, No Iterations 1
DILUPBiCGStab:  Solving for ILambda_11_0, Initial residual = 0.01607283, Final residual = 3.234654e-17, No Iterations 1
DILUPBiCGStab:  Solving for ILambda_12_0, Initial residual = 0.01886592, Final residual = 0.001375898, No Iterations 3
DILUPBiCGStab:  Solving for ILambda_13_0, Initial residual = 0.03372129, Final residual = 0.003231997, No Iterations 7
DILUPBiCGStab:  Solving for ILambda_14_0, Initial residual = 0.03715003, Final residual = 0.001088588, No Iterations 12
DILUPBiCGStab:  Solving for ILambda_15_0, Initial residual = 0.03504068, Final residual = 0.002607676, No Iterations 9
Radiation solver iter: 5
DILUPBiCGStab:  Solving for ILambda_0_0, Initial residual = 0.04809787, Final residual = 6.428526e-17, No Iterations 1
DILUPBiCGStab:  Solving for ILambda_1_0, Initial residual = 0.04768764, Final residual = 3.394416e-17, No Iterations 1
DILUPBiCGStab:  Solving for ILambda_2_0, Initial residual = 0.03801974, Final residual = 2.726562e-17, No Iterations 1
DILUPBiCGStab:  Solving for ILambda_3_0, Initial residual = 0.008085588, Final residual = 4.992466e-18, No Iterations 1
DILUPBiCGStab:  Solving for ILambda_4_0, Initial residual = 0.008521985, Final residual = 0.0006011386, No Iterations 2
DILUPBiCGStab:  Solving for ILambda_5_0, Initial residual = 0.04161893, Final residual = 0.001509557, No Iterations 4
DILUPBiCGStab:  Solving for ILambda_6_0, Initial residual = 0.04561803, Final residual = 0.003276898, No Iterations 3
DILUPBiCGStab:  Solving for ILambda_7_0, Initial residual = 0.02434013, Final residual = 0.002430379, No Iterations 3
DILUPBiCGStab:  Solving for ILambda_8_0, Initial residual = 0.009854398, Final residual = 8.99412e-18, No Iterations 1
DILUPBiCGStab:  Solving for ILambda_9_0, Initial residual = 0.01715912, Final residual = 1.58406e-17, No Iterations 1
DILUPBiCGStab:  Solving for ILambda_10_0, Initial residual = 0.01813522, Final residual = 1.964559e-17, No Iterations 1
DILUPBiCGStab:  Solving for ILambda_11_0, Initial residual = 0.01282114, Final residual = 2.912256e-17, No Iterations 1
DILUPBiCGStab:  Solving for ILambda_12_0, Initial residual = 0.01567947, Final residual = 0.001047689, No Iterations 3
DILUPBiCGStab:  Solving for ILambda_13_0, Initial residual = 0.02709231, Final residual = 0.002225603, No Iterations 6
DILUPBiCGStab:  Solving for ILambda_14_0, Initial residual = 0.03236687, Final residual = 0.0029267, No Iterations 10
DILUPBiCGStab:  Solving for ILambda_15_0, Initial residual = 0.03242683, Final residual = 0.001016711, No Iterations 11
Radiation solver iter: 6
DILUPBiCGStab:  Solving for ILambda_0_0, Initial residual = 0.04214659, Final residual = 6.384792e-17, No Iterations 1
DILUPBiCGStab:  Solving for ILambda_1_0, Initial residual = 0.0378964, Final residual = 2.412151e-17, No Iterations 1
DILUPBiCGStab:  Solving for ILambda_2_0, Initial residual = 0.02665122, Final residual = 1.659542e-17, No Iterations 1
DILUPBiCGStab:  Solving for ILambda_3_0, Initial residual = 0.003165731, Final residual = 1.727542e-18, No Iterations 1
DILUPBiCGStab:  Solving for ILambda_4_0, Initial residual = 0.003292144, Final residual = 0.0002080057, No Iterations 2
DILUPBiCGStab:  Solving for ILambda_5_0, Initial residual = 0.02769721, Final residual = 0.001788937, No Iterations 3
DILUPBiCGStab:  Solving for ILambda_6_0, Initial residual = 0.03606905, Final residual = 0.00265672, No Iterations 3
DILUPBiCGStab:  Solving for ILambda_7_0, Initial residual = 0.01893113, Final residual = 0.001529688, No Iterations 4
DILUPBiCGStab:  Solving for ILambda_8_0, Initial residual = 0.008461216, Final residual = 7.001813e-18, No Iterations 1
DILUPBiCGStab:  Solving for ILambda_9_0, Initial residual = 0.01503857, Final residual = 1.537748e-17, No Iterations 1
DILUPBiCGStab:  Solving for ILambda_10_0, Initial residual = 0.01484651, Final residual = 1.756482e-17, No Iterations 1
DILUPBiCGStab:  Solving for ILambda_11_0, Initial residual = 0.0107671, Final residual = 2.454306e-17, No Iterations 1
DILUPBiCGStab:  Solving for ILambda_12_0, Initial residual = 0.01292509, Final residual = 0.001031153, No Iterations 3
DILUPBiCGStab:  Solving for ILambda_13_0, Initial residual = 0.02216579, Final residual = 0.001237611, No Iterations 7
DILUPBiCGStab:  Solving for ILambda_14_0, Initial residual = 0.0287484, Final residual = 0.001140204, No Iterations 9
DILUPBiCGStab:  Solving for ILambda_15_0, Initial residual = 0.02908413, Final residual = 0.001861307, No Iterations 8
Radiation solver iter: 7
DILUPBiCGStab:  Solving for ILambda_0_0, Initial residual = 0.03645596, Final residual = 4.168438e-17, No Iterations 1
DILUPBiCGStab:  Solving for ILambda_1_0, Initial residual = 0.02957144, Final residual = 2.142123e-17, No Iterations 1
DILUPBiCGStab:  Solving for ILambda_2_0, Initial residual = 0.01793457, Final residual = 9.712778e-18, No Iterations 1
DILUPBiCGStab:  Solving for ILambda_3_0, Initial residual = 0.001133438, Final residual = 6.350549e-19, No Iterations 1
DILUPBiCGStab:  Solving for ILambda_4_0, Initial residual = 0.001212619, Final residual = 8.611048e-05, No Iterations 2
DILUPBiCGStab:  Solving for ILambda_5_0, Initial residual = 0.01789675, Final residual = 0.001728526, No Iterations 2
DILUPBiCGStab:  Solving for ILambda_6_0, Initial residual = 0.0283658, Final residual = 0.00275993, No Iterations 2
DILUPBiCGStab:  Solving for ILambda_7_0, Initial residual = 0.01503381, Final residual = 0.0007612501, No Iterations 4
DILUPBiCGStab:  Solving for ILambda_8_0, Initial residual = 0.00718945, Final residual = 5.766908e-18, No Iterations 1
DILUPBiCGStab:  Solving for ILambda_9_0, Initial residual = 0.01297995, Final residual = 1.068367e-17, No Iterations 1
DILUPBiCGStab:  Solving for ILambda_10_0, Initial residual = 0.0119363, Final residual = 1.384042e-17, No Iterations 1
DILUPBiCGStab:  Solving for ILambda_11_0, Initial residual = 0.008458622, Final residual = 2.012929e-17, No Iterations 1
DILUPBiCGStab:  Solving for ILambda_12_0, Initial residual = 0.009928464, Final residual = 0.0008250087, No Iterations 4
DILUPBiCGStab:  Solving for ILambda_13_0, Initial residual = 0.01763579, Final residual = 0.001479648, No Iterations 8
DILUPBiCGStab:  Solving for ILambda_14_0, Initial residual = 0.02465504, Final residual = 0.001591385, No Iterations 10
DILUPBiCGStab:  Solving for ILambda_15_0, Initial residual = 0.02587654, Final residual = 0.002498929, No Iterations 5
Radiation solver iter: 8
DILUPBiCGStab:  Solving for ILambda_0_0, Initial residual = 0.0310464, Final residual = 3.541297e-17, No Iterations 1
DILUPBiCGStab:  Solving for ILambda_1_0, Initial residual = 0.02295701, Final residual = 1.215706e-17, No Iterations 1
DILUPBiCGStab:  Solving for ILambda_2_0, Initial residual = 0.01156706, Final residual = 6.385458e-18, No Iterations 1
DILUPBiCGStab:  Solving for ILambda_3_0, Initial residual = 0.0004288972, Final residual = 3.031168e-19, No Iterations 1
DILUPBiCGStab:  Solving for ILambda_4_0, Initial residual = 0.0004774167, Final residual = 9.226565e-05, No Iterations 1
DILUPBiCGStab:  Solving for ILambda_5_0, Initial residual = 0.01103161, Final residual = 0.0009056137, No Iterations 2
DILUPBiCGStab:  Solving for ILambda_6_0, Initial residual = 0.02253852, Final residual = 0.001178356, No Iterations 3
DILUPBiCGStab:  Solving for ILambda_7_0, Initial residual = 0.01185413, Final residual = 0.0004220954, No Iterations 4
DILUPBiCGStab:  Solving for ILambda_8_0, Initial residual = 0.006145404, Final residual = 4.750649e-18, No Iterations 1
DILUPBiCGStab:  Solving for ILambda_9_0, Initial residual = 0.01113948, Final residual = 9.094266e-18, No Iterations 1
DILUPBiCGStab:  Solving for ILambda_10_0, Initial residual = 0.009572676, Final residual = 1.187304e-17, No Iterations 1
DILUPBiCGStab:  Solving for ILambda_11_0, Initial residual = 0.006354489, Final residual = 1.486905e-17, No Iterations 1
DILUPBiCGStab:  Solving for ILambda_12_0, Initial residual = 0.007396774, Final residual = 0.0005822411, No Iterations 4
DILUPBiCGStab:  Solving for ILambda_13_0, Initial residual = 0.01400655, Final residual = 0.001309673, No Iterations 6
DILUPBiCGStab:  Solving for ILambda_14_0, Initial residual = 0.02113996, Final residual = 0.001916588, No Iterations 4
DILUPBiCGStab:  Solving for ILambda_15_0, Initial residual = 0.02304227, Final residual = 0.002061019, No Iterations 5
Radiation solver iter: 9
DILUPBiCGStab:  Solving for ILambda_0_0, Initial residual = 0.02612433, Final residual = 2.561934e-17, No Iterations 1
DILUPBiCGStab:  Solving for ILambda_1_0, Initial residual = 0.01795404, Final residual = 8.974883e-18, No Iterations 1
DILUPBiCGStab:  Solving for ILambda_2_0, Initial residual = 0.007185347, Final residual = 3.713793e-18, No Iterations 1
DILUPBiCGStab:  Solving for ILambda_5_0, Initial residual = 0.006547475, Final residual = 0.000431878, No Iterations 2
DILUPBiCGStab:  Solving for ILambda_6_0, Initial residual = 0.01768911, Final residual = 0.0009189469, No Iterations 3
DILUPBiCGStab:  Solving for ILambda_7_0, Initial residual = 0.009347269, Final residual = 0.0008228781, No Iterations 2
DILUPBiCGStab:  Solving for ILambda_8_0, Initial residual = 0.00532101, Final residual = 4.695478e-18, No Iterations 1
DILUPBiCGStab:  Solving for ILambda_9_0, Initial residual = 0.009498957, Final residual = 8.119212e-18, No Iterations 1
DILUPBiCGStab:  Solving for ILambda_10_0, Initial residual = 0.00773026, Final residual = 9.654249e-18, No Iterations 1
DILUPBiCGStab:  Solving for ILambda_11_0, Initial residual = 0.00477012, Final residual = 1.123658e-17, No Iterations 1
DILUPBiCGStab:  Solving for ILambda_12_0, Initial residual = 0.005586368, Final residual = 0.0003996694, No Iterations 4
DILUPBiCGStab:  Solving for ILambda_13_0, Initial residual = 0.01166975, Final residual = 0.001025568, No Iterations 6
DILUPBiCGStab:  Solving for ILambda_14_0, Initial residual = 0.01837888, Final residual = 0.001396724, No Iterations 6
DILUPBiCGStab:  Solving for ILambda_15_0, Initial residual = 0.02034675, Final residual = 0.001739262, No Iterations 5
Radiation solver iter: 10
DILUPBiCGStab:  Solving for ILambda_0_0, Initial residual = 0.02174659, Final residual = 2.200883e-17, No Iterations 1
DILUPBiCGStab:  Solving for ILambda_1_0, Initial residual = 0.01411536, Final residual = 8.152011e-18, No Iterations 1
DILUPBiCGStab:  Solving for ILambda_2_0, Initial residual = 0.004299539, Final residual = 1.676433e-18, No Iterations 1
DILUPBiCGStab:  Solving for ILambda_5_0, Initial residual = 0.003740526, Final residual = 0.0002238804, No Iterations 2
DILUPBiCGStab:  Solving for ILambda_6_0, Initial residual = 0.0138627, Final residual = 0.0009227024, No Iterations 3
DILUPBiCGStab:  Solving for ILambda_7_0, Initial residual = 0.007455558, Final residual = 0.0006935636, No Iterations 2
DILUPBiCGStab:  Solving for ILambda_8_0, Initial residual = 0.004643638, Final residual = 3.368677e-18, No Iterations 1
DILUPBiCGStab:  Solving for ILambda_9_0, Initial residual = 0.008084544, Final residual = 6.714048e-18, No Iterations 1
DILUPBiCGStab:  Solving for ILambda_10_0, Initial residual = 0.006275007, Final residual = 7.602915e-18, No Iterations 1
DILUPBiCGStab:  Solving for ILambda_11_0, Initial residual = 0.003696266, Final residual = 8.535709e-18, No Iterations 1
DILUPBiCGStab:  Solving for ILambda_12_0, Initial residual = 0.004370079, Final residual = 0.000224147, No Iterations 4
DILUPBiCGStab:  Solving for ILambda_13_0, Initial residual = 0.009588923, Final residual = 0.0009252566, No Iterations 6
DILUPBiCGStab:  Solving for ILambda_14_0, Initial residual = 0.01589453, Final residual = 0.0006916928, No Iterations 8
DILUPBiCGStab:  Solving for ILambda_15_0, Initial residual = 0.0178192, Final residual = 0.001522942, No Iterations 5
Radiation solver iter: 11
DILUPBiCGStab:  Solving for ILambda_0_0, Initial residual = 0.0179815, Final residual = 1.574173e-17, No Iterations 1
DILUPBiCGStab:  Solving for ILambda_1_0, Initial residual = 0.01114119, Final residual = 4.378948e-18, No Iterations 1
DILUPBiCGStab:  Solving for ILambda_2_0, Initial residual = 0.002479525, Final residual = 1.037917e-18, No Iterations 1
DILUPBiCGStab:  Solving for ILambda_5_0, Initial residual = 0.002061544, Final residual = 0.0001124673, No Iterations 2
DILUPBiCGStab:  Solving for ILambda_6_0, Initial residual = 0.0108597, Final residual = 0.0008413503, No Iterations 3
DILUPBiCGStab:  Solving for ILambda_7_0, Initial residual = 0.005949585, Final residual = 0.0005005143, No Iterations 3
DILUPBiCGStab:  Solving for ILambda_8_0, Initial residual = 0.004039971, Final residual = 2.855438e-18, No Iterations 1
DILUPBiCGStab:  Solving for ILambda_9_0, Initial residual = 0.006810989, Final residual = 5.124676e-18, No Iterations 1
DILUPBiCGStab:  Solving for ILambda_10_0, Initial residual = 0.005079777, Final residual = 5.915845e-18, No Iterations 1
DILUPBiCGStab:  Solving for ILambda_11_0, Initial residual = 0.002914287, Final residual = 7.079334e-18, No Iterations 1
DILUPBiCGStab:  Solving for ILambda_12_0, Initial residual = 0.003459577, Final residual = 0.0001401053, No Iterations 4
DILUPBiCGStab:  Solving for ILambda_13_0, Initial residual = 0.007613768, Final residual = 0.0007114808, No Iterations 5
DILUPBiCGStab:  Solving for ILambda_14_0, Initial residual = 0.013245, Final residual = 0.001236352, No Iterations 4
DILUPBiCGStab:  Solving for ILambda_15_0, Initial residual = 0.01562308, Final residual = 0.001530536, No Iterations 5
Radiation solver iter: 12
DILUPBiCGStab:  Solving for ILambda_0_0, Initial residual = 0.0147802, Final residual = 1.198521e-17, No Iterations 1
DILUPBiCGStab:  Solving for ILambda_1_0, Initial residual = 0.008723253, Final residual = 3.947322e-18, No Iterations 1
DILUPBiCGStab:  Solving for ILambda_2_0, Initial residual = 0.001375802, Final residual = 4.657883e-19, No Iterations 1
DILUPBiCGStab:  Solving for ILambda_5_0, Initial residual = 0.001110534, Final residual = 7.224162e-05, No Iterations 2
DILUPBiCGStab:  Solving for ILambda_6_0, Initial residual = 0.00840354, Final residual = 0.0008058608, No Iterations 3
DILUPBiCGStab:  Solving for ILambda_7_0, Initial residual = 0.004718248, Final residual = 0.0004494784, No Iterations 3
DILUPBiCGStab:  Solving for ILambda_8_0, Initial residual = 0.003475539, Final residual = 2.668595e-18, No Iterations 1
DILUPBiCGStab:  Solving for ILambda_9_0, Initial residual = 0.005686694, Final residual = 4.393914e-18, No Iterations 1
DILUPBiCGStab:  Solving for ILambda_10_0, Initial residual = 0.004084243, Final residual = 4.712295e-18, No Iterations 1
DILUPBiCGStab:  Solving for ILambda_11_0, Initial residual = 0.002310732, Final residual = 5.247744e-18, No Iterations 1
DILUPBiCGStab:  Solving for ILambda_12_0, Initial residual = 0.002737681, Final residual = 9.782404e-05, No Iterations 4
DILUPBiCGStab:  Solving for ILambda_13_0, Initial residual = 0.006312469, Final residual = 0.0004796307, No Iterations 6
DILUPBiCGStab:  Solving for ILambda_14_0, Initial residual = 0.01119384, Final residual = 0.0009768062, No Iterations 4
DILUPBiCGStab:  Solving for ILambda_15_0, Initial residual = 0.01359335, Final residual = 0.0002878497, No Iterations 7
Radiation solver iter: 13
DILUPBiCGStab:  Solving for ILambda_0_0, Initial residual = 0.01210268, Final residual = 9.627527e-18, No Iterations 1
DILUPBiCGStab:  Solving for ILambda_1_0, Initial residual = 0.006740675, Final residual = 2.349347e-18, No Iterations 1
DILUPBiCGStab:  Solving for ILambda_2_0, Initial residual = 0.0007364118, Final residual = 3.739176e-19, No Iterations 1
DILUPBiCGStab:  Solving for ILambda_5_0, Initial residual = 0.000589582, Final residual = 9.175037e-05, No Iterations 2
DILUPBiCGStab:  Solving for ILambda_6_0, Initial residual = 0.006358893, Final residual = 0.0005162465, No Iterations 2
DILUPBiCGStab:  Solving for ILambda_7_0, Initial residual = 0.003716991, Final residual = 0.0002520436, No Iterations 3
DILUPBiCGStab:  Solving for ILambda_8_0, Initial residual = 0.00296252, Final residual = 2.202904e-18, No Iterations 1
DILUPBiCGStab:  Solving for ILambda_9_0, Initial residual = 0.004695291, Final residual = 3.538598e-18, No Iterations 1
DILUPBiCGStab:  Solving for ILambda_10_0, Initial residual = 0.003244002, Final residual = 3.434868e-18, No Iterations 1
DILUPBiCGStab:  Solving for ILambda_11_0, Initial residual = 0.001832284, Final residual = 4.234064e-18, No Iterations 1
DILUPBiCGStab:  Solving for ILambda_12_0, Initial residual = 0.00216602, Final residual = 7.637268e-05, No Iterations 4
DILUPBiCGStab:  Solving for ILambda_13_0, Initial residual = 0.004972072, Final residual = 0.000472297, No Iterations 6
DILUPBiCGStab:  Solving for ILambda_14_0, Initial residual = 0.009414793, Final residual = 0.0007850928, No Iterations 5
DILUPBiCGStab:  Solving for ILambda_15_0, Initial residual = 0.01159173, Final residual = 0.0009004397, No Iterations 3
Radiation solver iter: 14
DILUPBiCGStab:  Solving for ILambda_0_0, Initial residual = 0.009867706, Final residual = 7.398406e-18, No Iterations 1
DILUPBiCGStab:  Solving for ILambda_1_0, Initial residual = 0.005135616, Final residual = 2.677062e-18, No Iterations 1
DILUPBiCGStab:  Solving for ILambda_6_0, Initial residual = 0.004698343, Final residual = 0.00021236, No Iterations 2
DILUPBiCGStab:  Solving for ILambda_7_0, Initial residual = 0.002890464, Final residual = 0.0002534667, No Iterations 3
DILUPBiCGStab:  Solving for ILambda_8_0, Initial residual = 0.002493147, Final residual = 1.615485e-18, No Iterations 1
DILUPBiCGStab:  Solving for ILambda_9_0, Initial residual = 0.003832962, Final residual = 3.05889e-18, No Iterations 1
DILUPBiCGStab:  Solving for ILambda_10_0, Initial residual = 0.002556299, Final residual = 2.806341e-18, No Iterations 1
DILUPBiCGStab:  Solving for ILambda_11_0, Initial residual = 0.001455539, Final residual = 3.32798e-18, No Iterations 1
DILUPBiCGStab:  Solving for ILambda_12_0, Initial residual = 0.001720437, Final residual = 5.7391e-05, No Iterations 4
DILUPBiCGStab:  Solving for ILambda_13_0, Initial residual = 0.00387842, Final residual = 0.0003723268, No Iterations 5
DILUPBiCGStab:  Solving for ILambda_14_0, Initial residual = 0.007782627, Final residual = 0.0005820033, No Iterations 4
DILUPBiCGStab:  Solving for ILambda_15_0, Initial residual = 0.0100201, Final residual = 0.0006142715, No Iterations 4
GAMG:  Solving for p_rgh, Initial residual = 0.02384632, Final residual = 5.096552e-05, No Iterations 2
limitVelocity limitU Limited 0 (0%) of cells, with max limit 5
time step continuity errors : sum local = 0.0002934172, global = 2.69807e-18, cumulative = 1.973129e-15
rho min/max : 0.5377763 0.9471775
DILUPBiCGStab:  Solving for omega, Initial residual = 0.0001967543, Final residual = 6.790513e-06, No Iterations 1
DILUPBiCGStab:  Solving for k, Initial residual = 0.0003266009, Final residual = 1.837742e-05, No Iterations 1
ExecutionTime = 1.14 s  ClockTime = 1 s

Time = 4204

DILUPBiCGStab:  Solving for h, Initial residual = 7.703698e-05, Final residual = 1.682278e-09, No Iterations 1
limitTemperature limitT Lower limited 0 (0%) of cells, with min limit 280
limitTemperature limitT Upper limited 0 (0%) of cells, with max limit 1200
limitTemperature limitT Unlimited Tmin 416.6578
limitTemperature limitT Unlimited Tmax 502.3793
GAMG:  Solving for p_rgh, Initial residual = 0.01725696, Final residual = 4.447864e-05, No Iterations 2
limitVelocity limitU Limited 0 (0%) of cells, with max limit 5
time step continuity errors : sum local = 0.0002576798, global = -3.930988e-17, cumulative = 1.933819e-15
rho min/max : 0.5683567 0.9478939
DILUPBiCGStab:  Solving for omega, Initial residual = 0.0001556725, Final residual = 5.295067e-06, No Iterations 1
DILUPBiCGStab:  Solving for k, Initial residual = 0.0002955635, Final residual = 1.693616e-05, No Iterations 1
ExecutionTime = 1.16 s  ClockTime = 1 s

Time = 4205

DILUPBiCGStab:  Solving for h, Initial residual = 7.870882e-05, Final residual = 1.859024e-09, No Iterations 1
limitTemperature limitT Lower limited 0 (0%) of cells, with min limit 280
limitTemperature limitT Upper limited 0 (0%) of cells, with max limit 1200
limitTemperature limitT Unlimited Tmin 416.6607
limitTemperature limitT Unlimited Tmax 502.433
GAMG:  Solving for p_rgh, Initial residual = 0.01141294, Final residual = 3.639606e-05, No Iterations 2
limitVelocity limitU Limited 0 (0%) of cells, with max limit 5
time step continuity errors : sum local = 0.0002104736, global = -8.641696e-19, cumulative = 1.932955e-15
rho min/max : 0.5523491 0.9485541
DILUPBiCGStab:  Solving for omega, Initial residual = 0.0001734061, Final residual = 5.963971e-06, No Iterations 1
DILUPBiCGStab:  Solving for k, Initial residual = 0.0003062335, Final residual = 1.71141e-05, No Iterations 1
ExecutionTime = 1.17 s  ClockTime = 1 s

Time = 4206

DILUPBiCGStab:  Solving for h, Initial residual = 8.119247e-05, Final residual = 2.382405e-09, No Iterations 1
limitTemperature limitT Lower limited 0 (0%) of cells, with min limit 280
limitTemperature limitT Upper limited 0 (0%) of cells, with max limit 1200
limitTemperature limitT Unlimited Tmin 416.6629
limitTemperature limitT Unlimited Tmax 502.5217
Radiation solver iter: 0
DILUPBiCGStab:  Solving for ILambda_0_0, Initial residual = 0.1028205, Final residual = 5.663393e-16, No Iterations 1
DILUPBiCGStab:  Solving for ILambda_1_0, Initial residual = 0.1960178, Final residual = 9.463831e-16, No Iterations 1
DILUPBiCGStab:  Solving for ILambda_2_0, Initial residual = 0.3029064, Final residual = 1.33923e-15, No Iterations 1
DILUPBiCGStab:  Solving for ILambda_3_0, Initial residual = 0.459988, Final residual = 1.993296e-15, No Iterations 1
DILUPBiCGStab:  Solving for ILambda_4_0, Initial residual = 0.4743041, Final residual = 0.02100662, No Iterations 4
DILUPBiCGStab:  Solving for ILambda_5_0, Initial residual = 0.3226436, Final residual = 0.003692967, No Iterations 11
DILUPBiCGStab:  Solving for ILambda_6_0, Initial residual = 0.2132771, Final residual = 0.004883185, No Iterations 17
DILUPBiCGStab:  Solving for ILambda_7_0, Initial residual = 0.1156517, Final residual = 0.003904745, No Iterations 27
DILUPBiCGStab:  Solving for ILambda_8_0, Initial residual = 0.06205905, Final residual = 4.684489e-16, No Iterations 1
DILUPBiCGStab:  Solving for ILambda_9_0, Initial residual = 0.1206117, Final residual = 7.570189e-16, No Iterations 1
DILUPBiCGStab:  Solving for ILambda_10_0, Initial residual = 0.1754842, Final residual = 9.011555e-16, No Iterations 1
DILUPBiCGStab:  Solving for ILambda_11_0, Initial residual = 0.2447438, Final residual = 1.197982e-15, No Iterations 1
DILUPBiCGStab:  Solving for ILambda_12_0, Initial residual = 0.2781587, Final residual = 0.01287556, No Iterations 4
DILUPBiCGStab:  Solving for ILambda_13_0, Initial residual = 0.2401927, Final residual = 0.01752824, No Iterations 9
DILUPBiCGStab:  Solving for ILambda_14_0, Initial residual = 0.1981249, Final residual = 0.01712442, No Iterations 15
DILUPBiCGStab:  Solving for ILambda_15_0, Initial residual = 0.1622954, Final residual = 0.01031296, No Iterations 29
Radiation solver iter: 1
DILUPBiCGStab:  Solving for ILambda_0_0, Initial residual = 0.08171117, Final residual = 1.594526e-16, No Iterations 1
DILUPBiCGStab:  Solving for ILambda_1_0, Initial residual = 0.1201083, Final residual = 2.277935e-16, No Iterations 1
DILUPBiCGStab:  Solving for ILambda_2_0, Initial residual = 0.141358, Final residual = 2.090261e-16, No Iterations 1
DILUPBiCGStab:  Solving for ILambda_3_0, Initial residual = 0.1403025, Final residual = 2.357374e-16, No Iterations 1
DILUPBiCGStab:  Solving for ILambda_4_0, Initial residual = 0.1501535, Final residual = 0.006914268, No Iterations 4
DILUPBiCGStab:  Solving for ILambda_5_0, Initial residual = 0.1441395, Final residual = 0.01228114, No Iterations 7
DILUPBiCGStab:  Solving for ILambda_6_0, Initial residual = 0.1156718, Final residual = 0.002824137, No Iterations 11
DILUPBiCGStab:  Solving for ILambda_7_0, Initial residual = 0.07571177, Final residual = 0.006460627, No Iterations 6
DILUPBiCGStab:  Solving for ILambda_8_0, Initial residual = 0.01477107, Final residual = 2.98145e-17, No Iterations 1
DILUPBiCGStab:  Solving for ILambda_9_0, Initial residual = 0.02438588, Final residual = 5.393265e-17, No Iterations 1
DILUPBiCGStab:  Solving for ILambda_10_0, Initial residual = 0.03056902, Final residual = 8.405234e-17, No Iterations 1
DILUPBiCGStab:  Solving for ILambda_11_0, Initial residual = 0.03611373, Final residual = 1.238828e-16, No Iterations 1
DILUPBiCGStab:  Solving for ILambda_12_0, Initial residual = 0.05561729, Final residual = 0.005541352, No Iterations 4
DILUPBiCGStab:  Solving for ILambda_13_0, Initial residual = 0.06145246, Final residual = 0.005098047, No Iterations 8
DILUPBiCGStab:  Solving for ILambda_14_0, Initial residual = 0.05760005, Final residual = 0.004747959, No Iterations 13
DILUPBiCGStab:  Solving for ILambda_15_0, Initial residual = 0.05321802, Final residual = 0.004742081, No Iterations 18
Radiation solver iter: 2
DILUPBiCGStab:  Solving for ILambda_0_0, Initial residual = 0.0694966, Final residual = 1.317679e-16, No Iterations 1
DILUPBiCGStab:  Solving for ILambda_1_0, Initial residual = 0.08872094, Final residual = 1.00798e-16, No Iterations 1
DILUPBiCGStab:  Solving for ILambda_2_0, Initial residual = 0.09990262, Final residual = 9.294777e-17, No Iterations 1
DILUPBiCGStab:  Solving for ILambda_3_0, Initial residual = 0.0818848, Final residual = 1.005584e-16, No Iterations 1
DILUPBiCGStab:  Solving for ILambda_4_0, Initial residual = 0.08424877, Final residual = 0.003658599, No Iterations 3
DILUPBiCGStab:  Solving for ILambda_5_0, Initial residual = 0.1035435, Final residual = 0.005421048, No Iterations 6
DILUPBiCGStab:  Solving for ILambda_6_0, Initial residual = 0.08406699, Final residual = 0.007269667, No Iterations 5
DILUPBiCGStab:  Solving for ILambda_7_0, Initial residual = 0.05195162, Final residual = 0.004698449, No Iterations 4
DILUPBiCGStab:  Solving for ILambda_8_0, Initial residual = 0.01211718, Final residual = 1.439222e-17, No Iterations 1
DILUPBiCGStab:  Solving for ILambda_9_0, Initial residual = 0.02105091, Final residual = 3.650602e-17, No Iterations 1
DILUPBiCGStab:  Solving for ILambda_10_0, Initial residual = 0.02642847, Final residual = 5.165344e-17, No Iterations 1
DILUPBiCGStab:  Solving for ILambda_11_0, Initial residual = 0.02791101, Final residual = 7.888332e-17, No Iterations 1
DILUPBiCGStab:  Solving for ILambda_12_0, Initial residual = 0.03510504, Final residual = 0.003230109, No Iterations 3
DILUPBiCGStab:  Solving for ILambda_13_0, Initial residual = 0.04123272, Final residual = 0.002596175, No Iterations 8
DILUPBiCGStab:  Solving for ILambda_14_0, Initial residual = 0.04191201, Final residual = 0.004011477, No Iterations 12
DILUPBiCGStab:  Solving for ILambda_15_0, Initial residual = 0.04318594, Final residual = 0.004108641, No Iterations 11
Radiation solver iter: 3
DILUPBiCGStab:  Solving for ILambda_0_0, Initial residual = 0.05938506, Final residual = 9.618167e-17, No Iterations 1
DILUPBiCGStab:  Solving for ILambda_1_0, Initial residual = 0.06518778, Final residual = 5.538712e-17, No Iterations 1
DILUPBiCGStab:  Solving for ILambda_2_0, Initial residual = 0.06580396, Final residual = 5.29166e-17, No Iterations 1
DILUPBiCGStab:  Solving for ILambda_3_0, Initial residual = 0.03929002, Final residual = 3.742945e-17, No Iterations 1
DILUPBiCGStab:  Solving for ILambda_4_0, Initial residual = 0.04120579, Final residual = 0.002278699, No Iterations 2
DILUPBiCGStab:  Solving for ILambda_5_0, Initial residual = 0.06818303, Final residual = 0.005446325, No Iterations 3
DILUPBiCGStab:  Solving for ILambda_6_0, Initial residual = 0.06490087, Final residual = 0.002655673, No Iterations 5
DILUPBiCGStab:  Solving for ILambda_7_0, Initial residual = 0.03547457, Final residual = 0.002948818, No Iterations 4
DILUPBiCGStab:  Solving for ILambda_8_0, Initial residual = 0.01091675, Final residual = 1.192698e-17, No Iterations 1
DILUPBiCGStab:  Solving for ILambda_9_0, Initial residual = 0.0197902, Final residual = 2.509808e-17, No Iterations 1
DILUPBiCGStab:  Solving for ILambda_10_0, Initial residual = 0.0238241, Final residual = 3.592149e-17, No Iterations 1
DILUPBiCGStab:  Solving for ILambda_11_0, Initial residual = 0.01998759, Final residual = 4.599565e-17, No Iterations 1
DILUPBiCGStab:  Solving for ILambda_12_0, Initial residual = 0.02504513, Final residual = 0.001275296, No Iterations 4
DILUPBiCGStab:  Solving for ILambda_13_0, Initial residual = 0.03625626, Final residual = 0.001504879, No Iterations 8
DILUPBiCGStab:  Solving for ILambda_14_0, Initial residual = 0.03692927, Final residual = 0.001784127, No Iterations 13
DILUPBiCGStab:  Solving for ILambda_15_0, Initial residual = 0.03766998, Final residual = 0.001744733, No Iterations 13
Radiation solver iter: 4
DILUPBiCGStab:  Solving for ILambda_0_0, Initial residual = 0.05038597, Final residual = 7.470166e-17, No Iterations 1
DILUPBiCGStab:  Solving for ILambda_1_0, Initial residual = 0.05030501, Final residual = 3.702712e-17, No Iterations 1
DILUPBiCGStab:  Solving for ILambda_2_0, Initial residual = 0.04569256, Final residual = 3.140114e-17, No Iterations 1
DILUPBiCGStab:  Solving for ILambda_3_0, Initial residual = 0.01742933, Final residual = 1.31847e-17, No Iterations 1
DILUPBiCGStab:  Solving for ILambda_4_0, Initial residual = 0.01812885, Final residual = 0.001487686, No Iterations 2
DILUPBiCGStab:  Solving for ILambda_5_0, Initial residual = 0.04925736, Final residual = 0.003963663, No Iterations 3
DILUPBiCGStab:  Solving for ILambda_6_0, Initial residual = 0.05090865, Final residual = 0.003265355, No Iterations 3
DILUPBiCGStab:  Solving for ILambda_7_0, Initial residual = 0.0263295, Final residual = 0.002020167, No Iterations 4
DILUPBiCGStab:  Solving for ILambda_8_0, Initial residual = 0.009839061, Final residual = 9.220148e-18, No Iterations 1
DILUPBiCGStab:  Solving for ILambda_9_0, Initial residual = 0.0181588, Final residual = 1.813804e-17, No Iterations 1
DILUPBiCGStab:  Solving for ILambda_10_0, Initial residual = 0.02056724, Final residual = 2.469349e-17, No Iterations 1
DILUPBiCGStab:  Solving for ILambda_11_0, Initial residual = 0.01486447, Final residual = 3.210904e-17, No Iterations 1
DILUPBiCGStab:  Solving for ILambda_12_0, Initial residual = 0.0177112, Final residual = 0.001349675, No Iterations 3
DILUPBiCGStab:  Solving for ILambda_13_0, Initial residual = 0.03027234, Final residual = 0.0003321565, No Iterations 10
DILUPBiCGStab:  Solving for ILambda_14_0, Initial residual = 0.03341238, Final residual = 0.002959803, No Iterations 9
DILUPBiCGStab:  Solving for ILambda_15_0, Initial residual = 0.03333406, Final residual = 0.002515908, No Iterations 15
Radiation solver iter: 5
DILUPBiCGStab:  Solving for ILambda_0_0, Initial residual = 0.04215629, Final residual = 5.657492e-17, No Iterations 1
DILUPBiCGStab:  Solving for ILambda_1_0, Initial residual = 0.03964534, Final residual = 2.846447e-17, No Iterations 1
DILUPBiCGStab:  Solving for ILambda_2_0, Initial residual = 0.03217916, Final residual = 1.982966e-17, No Iterations 1
DILUPBiCGStab:  Solving for ILambda_3_0, Initial residual = 0.007382543, Final residual = 4.536758e-18, No Iterations 1
DILUPBiCGStab:  Solving for ILambda_4_0, Initial residual = 0.007923983, Final residual = 0.000521012, No Iterations 2
DILUPBiCGStab:  Solving for ILambda_5_0, Initial residual = 0.034812, Final residual = 0.002524714, No Iterations 3
DILUPBiCGStab:  Solving for ILambda_6_0, Initial residual = 0.0398739, Final residual = 0.002625538, No Iterations 3
DILUPBiCGStab:  Solving for ILambda_7_0, Initial residual = 0.02006649, Final residual = 0.0008861713, No Iterations 5
DILUPBiCGStab:  Solving for ILambda_8_0, Initial residual = 0.008608236, Final residual = 9.851498e-18, No Iterations 1
DILUPBiCGStab:  Solving for ILambda_9_0, Initial residual = 0.01626332, Final residual = 1.510029e-17, No Iterations 1
DILUPBiCGStab:  Solving for ILambda_10_0, Initial residual = 0.01701893, Final residual = 1.922185e-17, No Iterations 1
DILUPBiCGStab:  Solving for ILambda_11_0, Initial residual = 0.01184961, Final residual = 2.619293e-17, No Iterations 1
DILUPBiCGStab:  Solving for ILambda_12_0, Initial residual = 0.01458884, Final residual = 0.0009700993, No Iterations 3
DILUPBiCGStab:  Solving for ILambda_13_0, Initial residual = 0.02443977, Final residual = 0.0005000814, No Iterations 9
DILUPBiCGStab:  Solving for ILambda_14_0, Initial residual = 0.03020997, Final residual = 0.002577122, No Iterations 11
DILUPBiCGStab:  Solving for ILambda_15_0, Initial residual = 0.03073023, Final residual = 0.003009899, No Iterations 9
Radiation solver iter: 6
DILUPBiCGStab:  Solving for ILambda_0_0, Initial residual = 0.03499145, Final residual = 4.364463e-17, No Iterations 1
DILUPBiCGStab:  Solving for ILambda_1_0, Initial residual = 0.03081186, Final residual = 2.008606e-17, No Iterations 1
DILUPBiCGStab:  Solving for ILambda_2_0, Initial residual = 0.02237339, Final residual = 1.495946e-17, No Iterations 1
DILUPBiCGStab:  Solving for ILambda_3_0, Initial residual = 0.002896475, Final residual = 1.716076e-18, No Iterations 1
DILUPBiCGStab:  Solving for ILambda_4_0, Initial residual = 0.003071356, Final residual = 0.0001783044, No Iterations 2
DILUPBiCGStab:  Solving for ILambda_5_0, Initial residual = 0.02352291, Final residual = 0.002346834, No Iterations 3
DILUPBiCGStab:  Solving for ILambda_6_0, Initial residual = 0.0310968, Final residual = 0.002573995, No Iterations 4
DILUPBiCGStab:  Solving for ILambda_7_0, Initial residual = 0.01544569, Final residual = 0.0009461156, No Iterations 4
DILUPBiCGStab:  Solving for ILambda_8_0, Initial residual = 0.007412957, Final residual = 5.508717e-18, No Iterations 1
DILUPBiCGStab:  Solving for ILambda_9_0, Initial residual = 0.01423924, Final residual = 1.210456e-17, No Iterations 1
DILUPBiCGStab:  Solving for ILambda_10_0, Initial residual = 0.01381598, Final residual = 1.662642e-17, No Iterations 1
DILUPBiCGStab:  Solving for ILambda_11_0, Initial residual = 0.009919732, Final residual = 2.414134e-17, No Iterations 1
DILUPBiCGStab:  Solving for ILambda_12_0, Initial residual = 0.01189019, Final residual = 0.0008953643, No Iterations 3
DILUPBiCGStab:  Solving for ILambda_13_0, Initial residual = 0.01967104, Final residual = 0.0002161001, No Iterations 10
DILUPBiCGStab:  Solving for ILambda_14_0, Initial residual = 0.02651699, Final residual = 0.001967374, No Iterations 10
DILUPBiCGStab:  Solving for ILambda_15_0, Initial residual = 0.0277891, Final residual = 0.001903982, No Iterations 8
Radiation solver iter: 7
DILUPBiCGStab:  Solving for ILambda_0_0, Initial residual = 0.02896113, Final residual = 3.330422e-17, No Iterations 1
DILUPBiCGStab:  Solving for ILambda_1_0, Initial residual = 0.02373909, Final residual = 1.343474e-17, No Iterations 1
DILUPBiCGStab:  Solving for ILambda_2_0, Initial residual = 0.01499561, Final residual = 8.174704e-18, No Iterations 1
DILUPBiCGStab:  Solving for ILambda_3_0, Initial residual = 0.001033875, Final residual = 5.342084e-19, No Iterations 1
DILUPBiCGStab:  Solving for ILambda_4_0, Initial residual = 0.001123726, Final residual = 7.410822e-05, No Iterations 2
DILUPBiCGStab:  Solving for ILambda_5_0, Initial residual = 0.0151653, Final residual = 0.001382696, No Iterations 2
DILUPBiCGStab:  Solving for ILambda_6_0, Initial residual = 0.02434825, Final residual = 0.001940995, No Iterations 3
DILUPBiCGStab:  Solving for ILambda_7_0, Initial residual = 0.01206537, Final residual = 0.000827029, No Iterations 4
DILUPBiCGStab:  Solving for ILambda_8_0, Initial residual = 0.006320827, Final residual = 4.987389e-18, No Iterations 1
DILUPBiCGStab:  Solving for ILambda_9_0, Initial residual = 0.01235801, Final residual = 1.028661e-17, No Iterations 1
DILUPBiCGStab:  Solving for ILambda_10_0, Initial residual = 0.011228, Final residual = 1.390665e-17, No Iterations 1
DILUPBiCGStab:  Solving for ILambda_11_0, Initial residual = 0.007917781, Final residual = 1.875126e-17, No Iterations 1
DILUPBiCGStab:  Solving for ILambda_12_0, Initial residual = 0.0092504, Final residual = 0.000795435, No Iterations 4
DILUPBiCGStab:  Solving for ILambda_13_0, Initial residual = 0.01585828, Final residual = 0.0006272232, No Iterations 9
DILUPBiCGStab:  Solving for ILambda_14_0, Initial residual = 0.02257884, Final residual = 0.002193677, No Iterations 4
DILUPBiCGStab:  Solving for ILambda_15_0, Initial residual = 0.02440002, Final residual = 0.00228849, No Iterations 6
Radiation solver iter: 8
DILUPBiCGStab:  Solving for ILambda_0_0, Initial residual = 0.02385649, Final residual = 2.751496e-17, No Iterations 1
DILUPBiCGStab:  Solving for ILambda_1_0, Initial residual = 0.0183129, Final residual = 8.611868e-18, No Iterations 1
DILUPBiCGStab:  Solving for ILambda_2_0, Initial residual = 0.009664119, Final residual = 5.054942e-18, No Iterations 1
DILUPBiCGStab:  Solving for ILambda_3_0, Initial residual = 0.0003854291, Final residual = 2.635695e-19, No Iterations 1
DILUPBiCGStab:  Solving for ILambda_4_0, Initial residual = 0.0004336562, Final residual = 8.0646e-05, No Iterations 1
DILUPBiCGStab:  Solving for ILambda_5_0, Initial residual = 0.009263663, Final residual = 0.0006430946, No Iterations 2
[...]
DILUPBiCGStab:  Solving for ILambda_3_0, Initial residual = 0.02347346, Final residual = 1.907056e-17, No Iterations 1
DILUPBiCGStab:  Solving for ILambda_4_0, Initial residual = 0.02433688, Final residual = 0.002075075, No Iterations 2
DILUPBiCGStab:  Solving for ILambda_5_0, Initial residual = 0.08494837, Final residual = 0.007745858, No Iterations 4
DILUPBiCGStab:  Solving for ILambda_6_0, Initial residual = 0.1027182, Final residual = 0.003501129, No Iterations 5
DILUPBiCGStab:  Solving for ILambda_7_0, Initial residual = 0.07191983, Final residual = 0.006399556, No Iterations 3
DILUPBiCGStab:  Solving for ILambda_8_0, Initial residual = 0.02953815, Final residual = 2.833432e-17, No Iterations 1
DILUPBiCGStab:  Solving for ILambda_9_0, Initial residual = 0.05734729, Final residual = 5.386891e-17, No Iterations 1
DILUPBiCGStab:  Solving for ILambda_10_0, Initial residual = 0.06715398, Final residual = 8.102448e-17, No Iterations 1
DILUPBiCGStab:  Solving for ILambda_11_0, Initial residual = 0.04901813, Final residual = 9.971449e-17, No Iterations 1
DILUPBiCGStab:  Solving for ILambda_12_0, Initial residual = 0.05811362, Final residual = 0.004291108, No Iterations 3
DILUPBiCGStab:  Solving for ILambda_13_0, Initial residual = 0.09235652, Final residual = 0.007373499, No Iterations 6
DILUPBiCGStab:  Solving for ILambda_14_0, Initial residual = 0.09376783, Final residual = 0.009314066, No Iterations 7
DILUPBiCGStab:  Solving for ILambda_15_0, Initial residual = 0.08862501, Final residual = 0.00845524, No Iterations 9
Radiation solver iter: 5
DILUPBiCGStab:  Solving for ILambda_0_0, Initial residual = 0.09025668, Final residual = 1.282301e-16, No Iterations 1
DILUPBiCGStab:  Solving for ILambda_1_0, Initial residual = 0.07589417, Final residual = 6.88849e-17, No Iterations 1
DILUPBiCGStab:  Solving for ILambda_2_0, Initial residual = 0.05316386, Final residual = 3.61203e-17, No Iterations 1
DILUPBiCGStab:  Solving for ILambda_3_0, Initial residual = 0.009742118, Final residual = 6.357616e-18, No Iterations 1
DILUPBiCGStab:  Solving for ILambda_4_0, Initial residual = 0.01046227, Final residual = 0.0007082689, No Iterations 2
DILUPBiCGStab:  Solving for ILambda_5_0, Initial residual = 0.05715857, Final residual = 0.005156457, No Iterations 3
DILUPBiCGStab:  Solving for ILambda_6_0, Initial residual = 0.0796213, Final residual = 0.002395358, No Iterations 4
DILUPBiCGStab:  Solving for ILambda_7_0, Initial residual = 0.05590562, Final residual = 0.004377713, No Iterations 3
DILUPBiCGStab:  Solving for ILambda_8_0, Initial residual = 0.02713776, Final residual = 2.100829e-17, No Iterations 1
DILUPBiCGStab:  Solving for ILambda_9_0, Initial residual = 0.05215432, Final residual = 5.371994e-17, No Iterations 1
DILUPBiCGStab:  Solving for ILambda_10_0, Initial residual = 0.054639, Final residual = 6.378956e-17, No Iterations 1
DILUPBiCGStab:  Solving for ILambda_11_0, Initial residual = 0.03879033, Final residual = 9.269791e-17, No Iterations 1
DILUPBiCGStab:  Solving for ILambda_12_0, Initial residual = 0.04654521, Final residual = 0.003235415, No Iterations 3
DILUPBiCGStab:  Solving for ILambda_13_0, Initial residual = 0.07494725, Final residual = 0.007085734, No Iterations 5
DILUPBiCGStab:  Solving for ILambda_14_0, Initial residual = 0.08550908, Final residual = 0.005817042, No Iterations 8
DILUPBiCGStab:  Solving for ILambda_15_0, Initial residual = 0.08286239, Final residual = 0.007635377, No Iterations 9
Radiation solver iter: 6
DILUPBiCGStab:  Solving for ILambda_0_0, Initial residual = 0.0737828, Final residual = 9.545562e-17, No Iterations 1
DILUPBiCGStab:  Solving for ILambda_1_0, Initial residual = 0.05873149, Final residual = 4.150834e-17, No Iterations 1
DILUPBiCGStab:  Solving for ILambda_2_0, Initial residual = 0.03617805, Final residual = 2.955055e-17, No Iterations 1
DILUPBiCGStab:  Solving for ILambda_3_0, Initial residual = 0.003871436, Final residual = 2.631745e-18, No Iterations 1
DILUPBiCGStab:  Solving for ILambda_4_0, Initial residual = 0.004043808, Final residual = 0.0002482513, No Iterations 2
DILUPBiCGStab:  Solving for ILambda_5_0, Initial residual = 0.0374788, Final residual = 0.002379487, No Iterations 3
DILUPBiCGStab:  Solving for ILambda_6_0, Initial residual = 0.06104989, Final residual = 0.005380156, No Iterations 2
DILUPBiCGStab:  Solving for ILambda_7_0, Initial residual = 0.04493135, Final residual = 0.002456248, No Iterations 4
DILUPBiCGStab:  Solving for ILambda_8_0, Initial residual = 0.02434579, Final residual = 1.700975e-17, No Iterations 1
DILUPBiCGStab:  Solving for ILambda_9_0, Initial residual = 0.04627929, Final residual = 3.938531e-17, No Iterations 1
DILUPBiCGStab:  Solving for ILambda_10_0, Initial residual = 0.04436286, Final residual = 5.069946e-17, No Iterations 1
DILUPBiCGStab:  Solving for ILambda_11_0, Initial residual = 0.03351577, Final residual = 7.77351e-17, No Iterations 1
DILUPBiCGStab:  Solving for ILambda_12_0, Initial residual = 0.03943166, Final residual = 0.003149783, No Iterations 3
DILUPBiCGStab:  Solving for ILambda_13_0, Initial residual = 0.06058489, Final residual = 0.004857911, No Iterations 6
DILUPBiCGStab:  Solving for ILambda_14_0, Initial residual = 0.07488703, Final residual = 0.006235199, No Iterations 9
DILUPBiCGStab:  Solving for ILambda_15_0, Initial residual = 0.07375201, Final residual = 0.005938616, No Iterations 7
Radiation solver iter: 7
DILUPBiCGStab:  Solving for ILambda_0_0, Initial residual = 0.05969901, Final residual = 6.683634e-17, No Iterations 1
DILUPBiCGStab:  Solving for ILambda_1_0, Initial residual = 0.04486601, Final residual = 2.700049e-17, No Iterations 1
DILUPBiCGStab:  Solving for ILambda_2_0, Initial residual = 0.02364979, Final residual = 1.256486e-17, No Iterations 1
DILUPBiCGStab:  Solving for ILambda_3_0, Initial residual = 0.001415846, Final residual = 9.06539e-19, No Iterations 1
DILUPBiCGStab:  Solving for ILambda_4_0, Initial residual = 0.001500976, Final residual = 0.0001110148, No Iterations 2
DILUPBiCGStab:  Solving for ILambda_5_0, Initial residual = 0.02389827, Final residual = 0.001324309, No Iterations 3
DILUPBiCGStab:  Solving for ILambda_6_0, Initial residual = 0.04751938, Final residual = 0.003439769, No Iterations 2
DILUPBiCGStab:  Solving for ILambda_7_0, Initial residual = 0.03626575, Final residual = 0.001568676, No Iterations 4
DILUPBiCGStab:  Solving for ILambda_8_0, Initial residual = 0.02138985, Final residual = 1.605326e-17, No Iterations 1
DILUPBiCGStab:  Solving for ILambda_9_0, Initial residual = 0.04064998, Final residual = 3.460203e-17, No Iterations 1
DILUPBiCGStab:  Solving for ILambda_10_0, Initial residual = 0.03625079, Final residual = 4.194472e-17, No Iterations 1
DILUPBiCGStab:  Solving for ILambda_11_0, Initial residual = 0.02727402, Final residual = 6.265188e-17, No Iterations 1
DILUPBiCGStab:  Solving for ILambda_12_0, Initial residual = 0.03121523, Final residual = 0.002997877, No Iterations 3
DILUPBiCGStab:  Solving for ILambda_13_0, Initial residual = 0.04941507, Final residual = 0.002911763, No Iterations 7
DILUPBiCGStab:  Solving for ILambda_14_0, Initial residual = 0.06542999, Final residual = 0.005532638, No Iterations 6
DILUPBiCGStab:  Solving for ILambda_15_0, Initial residual = 0.06391359, Final residual = 0.006133849, No Iterations 5
Radiation solver iter: 8
DILUPBiCGStab:  Solving for ILambda_0_0, Initial residual = 0.04799662, Final residual = 5.106008e-17, No Iterations 1
DILUPBiCGStab:  Solving for ILambda_1_0, Initial residual = 0.03433796, Final residual = 1.774222e-17, No Iterations 1
DILUPBiCGStab:  Solving for ILambda_2_0, Initial residual = 0.01481614, Final residual = 6.902482e-18, No Iterations 1
DILUPBiCGStab:  Solving for ILambda_3_0, Initial residual = 0.0005572783, Final residual = 4.670656e-19, No Iterations 1
DILUPBiCGStab:  Solving for ILambda_4_0, Initial residual = 0.0006090645, Final residual = 7.870486e-05, No Iterations 2
DILUPBiCGStab:  Solving for ILambda_5_0, Initial residual = 0.01453867, Final residual = 0.0007021175, No Iterations 3
DILUPBiCGStab:  Solving for ILambda_6_0, Initial residual = 0.03720565, Final residual = 0.003442475, No Iterations 2
DILUPBiCGStab:  Solving for ILambda_7_0, Initial residual = 0.02933037, Final residual = 0.0008017404, No Iterations 4
DILUPBiCGStab:  Solving for ILambda_8_0, Initial residual = 0.01846464, Final residual = 1.181548e-17, No Iterations 1
DILUPBiCGStab:  Solving for ILambda_9_0, Initial residual = 0.03523898, Final residual = 2.794666e-17, No Iterations 1
DILUPBiCGStab:  Solving for ILambda_10_0, Initial residual = 0.02942158, Final residual = 3.517378e-17, No Iterations 1
DILUPBiCGStab:  Solving for ILambda_11_0, Initial residual = 0.02047259, Final residual = 4.667131e-17, No Iterations 1
DILUPBiCGStab:  Solving for ILambda_12_0, Initial residual = 0.02320476, Final residual = 0.001656413, No Iterations 4
DILUPBiCGStab:  Solving for ILambda_13_0, Initial residual = 0.04022743, Final residual = 0.003134384, No Iterations 6
DILUPBiCGStab:  Solving for ILambda_14_0, Initial residual = 0.05681999, Final residual = 0.003458712, No Iterations 6
DILUPBiCGStab:  Solving for ILambda_15_0, Initial residual = 0.05555445, Final residual = 0.002340339, No Iterations 7
Radiation solver iter: 9
DILUPBiCGStab:  Solving for ILambda_0_0, Initial residual = 0.03856005, Final residual = 3.823251e-17, No Iterations 1
DILUPBiCGStab:  Solving for ILambda_1_0, Initial residual = 0.02660375, Final residual = 1.495265e-17, No Iterations 1
DILUPBiCGStab:  Solving for ILambda_2_0, Initial residual = 0.008946683, Final residual = 4.242619e-18, No Iterations 1
DILUPBiCGStab:  Solving for ILambda_5_0, Initial residual = 0.008614125, Final residual = 0.0003391268, No Iterations 3
DILUPBiCGStab:  Solving for ILambda_6_0, Initial residual = 0.02924867, Final residual = 0.001990142, No Iterations 3
DILUPBiCGStab:  Solving for ILambda_7_0, Initial residual = 0.02354035, Final residual = 0.001595661, No Iterations 2
DILUPBiCGStab:  Solving for ILambda_8_0, Initial residual = 0.01581798, Final residual = 1.321072e-17, No Iterations 1
DILUPBiCGStab:  Solving for ILambda_9_0, Initial residual = 0.03034498, Final residual = 2.426075e-17, No Iterations 1
DILUPBiCGStab:  Solving for ILambda_10_0, Initial residual = 0.02399682, Final residual = 2.889007e-17, No Iterations 1
DILUPBiCGStab:  Solving for ILambda_11_0, Initial residual = 0.0150028, Final residual = 3.464988e-17, No Iterations 1
DILUPBiCGStab:  Solving for ILambda_12_0, Initial residual = 0.01693404, Final residual = 0.0001318951, No Iterations 5
DILUPBiCGStab:  Solving for ILambda_13_0, Initial residual = 0.03313079, Final residual = 0.003079907, No Iterations 6
DILUPBiCGStab:  Solving for ILambda_14_0, Initial residual = 0.0491714, Final residual = 0.004058524, No Iterations 4
DILUPBiCGStab:  Solving for ILambda_15_0, Initial residual = 0.04718552, Final residual = 0.003751083, No Iterations 6
Radiation solver iter: 10
DILUPBiCGStab:  Solving for ILambda_0_0, Initial residual = 0.03101867, Final residual = 2.77704e-17, No Iterations 1
DILUPBiCGStab:  Solving for ILambda_1_0, Initial residual = 0.02085694, Final residual = 1.447546e-17, No Iterations 1
DILUPBiCGStab:  Solving for ILambda_2_0, Initial residual = 0.005230478, Final residual = 2.359427e-18, No Iterations 1
DILUPBiCGStab:  Solving for ILambda_5_0, Initial residual = 0.004978197, Final residual = 0.0001484948, No Iterations 3
DILUPBiCGStab:  Solving for ILambda_6_0, Initial residual = 0.02292003, Final residual = 0.001706393, No Iterations 3
DILUPBiCGStab:  Solving for ILambda_7_0, Initial residual = 0.01905641, Final residual = 0.001373105, No Iterations 2
DILUPBiCGStab:  Solving for ILambda_8_0, Initial residual = 0.01351231, Final residual = 9.651778e-18, No Iterations 1
DILUPBiCGStab:  Solving for ILambda_9_0, Initial residual = 0.02593484, Final residual = 1.839706e-17, No Iterations 1
DILUPBiCGStab:  Solving for ILambda_10_0, Initial residual = 0.01959355, Final residual = 2.284003e-17, No Iterations 1
DILUPBiCGStab:  Solving for ILambda_11_0, Initial residual = 0.01121788, Final residual = 2.711211e-17, No Iterations 1
DILUPBiCGStab:  Solving for ILambda_12_0, Initial residual = 0.01310081, Final residual = 0.000510061, No Iterations 4
DILUPBiCGStab:  Solving for ILambda_13_0, Initial residual = 0.02748518, Final residual = 0.002349051, No Iterations 5
DILUPBiCGStab:  Solving for ILambda_14_0, Initial residual = 0.04260523, Final residual = 0.003418066, No Iterations 5
DILUPBiCGStab:  Solving for ILambda_15_0, Initial residual = 0.04040514, Final residual = 0.00254305, No Iterations 7
Radiation solver iter: 11
DILUPBiCGStab:  Solving for ILambda_0_0, Initial residual = 0.02500358, Final residual = 2.109109e-17, No Iterations 1
DILUPBiCGStab:  Solving for ILambda_1_0, Initial residual = 0.01647343, Final residual = 6.893699e-18, No Iterations 1
DILUPBiCGStab:  Solving for ILambda_2_0, Initial residual = 0.002963086, Final residual = 1.270499e-18, No Iterations 1
DILUPBiCGStab:  Solving for ILambda_5_0, Initial residual = 0.002839502, Final residual = 0.0002446524, No Iterations 2
DILUPBiCGStab:  Solving for ILambda_6_0, Initial residual = 0.0179549, Final residual = 0.001566331, No Iterations 3
DILUPBiCGStab:  Solving for ILambda_7_0, Initial residual = 0.015419, Final residual = 0.001246629, No Iterations 2
DILUPBiCGStab:  Solving for ILambda_8_0, Initial residual = 0.01162383, Final residual = 8.363345e-18, No Iterations 1
DILUPBiCGStab:  Solving for ILambda_9_0, Initial residual = 0.0220227, Final residual = 1.608407e-17, No Iterations 1
DILUPBiCGStab:  Solving for ILambda_10_0, Initial residual = 0.01593183, Final residual = 1.776525e-17, No Iterations 1
DILUPBiCGStab:  Solving for ILambda_11_0, Initial residual = 0.008699149, Final residual = 2.02373e-17, No Iterations 1
DILUPBiCGStab:  Solving for ILambda_12_0, Initial residual = 0.01035531, Final residual = 0.0003891302, No Iterations 4
DILUPBiCGStab:  Solving for ILambda_13_0, Initial residual = 0.02252521, Final residual = 0.002068521, No Iterations 4
DILUPBiCGStab:  Solving for ILambda_14_0, Initial residual = 0.03637053, Final residual = 0.00324978, No Iterations 5
DILUPBiCGStab:  Solving for ILambda_15_0, Initial residual = 0.03422903, Final residual = 0.002244873, No Iterations 5
Radiation solver iter: 12
DILUPBiCGStab:  Solving for ILambda_0_0, Initial residual = 0.02017366, Final residual = 1.583788e-17, No Iterations 1
DILUPBiCGStab:  Solving for ILambda_1_0, Initial residual = 0.01291267, Final residual = 5.527437e-18, No Iterations 1
DILUPBiCGStab:  Solving for ILambda_2_0, Initial residual = 0.001629953, Final residual = 5.728298e-19, No Iterations 1
DILUPBiCGStab:  Solving for ILambda_5_0, Initial residual = 0.00156896, Final residual = 0.0001105351, No Iterations 2
DILUPBiCGStab:  Solving for ILambda_6_0, Initial residual = 0.01387796, Final residual = 0.0007565617, No Iterations 3
DILUPBiCGStab:  Solving for ILambda_7_0, Initial residual = 0.01246246, Final residual = 0.001131245, No Iterations 2
DILUPBiCGStab:  Solving for ILambda_8_0, Initial residual = 0.009997137, Final residual = 6.884806e-18, No Iterations 1
DILUPBiCGStab:  Solving for ILambda_9_0, Initial residual = 0.01851338, Final residual = 1.431323e-17, No Iterations 1
DILUPBiCGStab:  Solving for ILambda_10_0, Initial residual = 0.01282888, Final residual = 1.282968e-17, No Iterations 1
DILUPBiCGStab:  Solving for ILambda_11_0, Initial residual = 0.006978026, Final residual = 1.558577e-17, No Iterations 1
DILUPBiCGStab:  Solving for ILambda_12_0, Initial residual = 0.008267328, Final residual = 0.0002829446, No Iterations 4
DILUPBiCGStab:  Solving for ILambda_13_0, Initial residual = 0.01813877, Final residual = 0.001715229, No Iterations 5
DILUPBiCGStab:  Solving for ILambda_14_0, Initial residual = 0.03080093, Final residual = 0.002864778, No Iterations 4
DILUPBiCGStab:  Solving for ILambda_15_0, Initial residual = 0.02922362, Final residual = 0.001528298, No Iterations 5
Radiation solver iter: 13
DILUPBiCGStab:  Solving for ILambda_0_0, Initial residual = 0.01630224, Final residual = 1.204203e-17, No Iterations 1
DILUPBiCGStab:  Solving for ILambda_1_0, Initial residual = 0.01001037, Final residual = 4.374796e-18, No Iterations 1
DILUPBiCGStab:  Solving for ILambda_2_0, Initial residual = 0.0008747724, Final residual = 2.865144e-19, No Iterations 1
DILUPBiCGStab:  Solving for ILambda_5_0, Initial residual = 0.0008626358, Final residual = 5.534487e-05, No Iterations 2
DILUPBiCGStab:  Solving for ILambda_6_0, Initial residual = 0.01039098, Final residual = 0.0005675093, No Iterations 2
DILUPBiCGStab:  Solving for ILambda_7_0, Initial residual = 0.01006038, Final residual = 0.0006487111, No Iterations 3
DILUPBiCGStab:  Solving for ILambda_8_0, Initial residual = 0.008569513, Final residual = 5.949222e-18, No Iterations 1
DILUPBiCGStab:  Solving for ILambda_9_0, Initial residual = 0.01539306, Final residual = 9.592873e-18, No Iterations 1
DILUPBiCGStab:  Solving for ILambda_10_0, Initial residual = 0.01018965, Final residual = 1.012901e-17, No Iterations 1
DILUPBiCGStab:  Solving for ILambda_11_0, Initial residual = 0.005702667, Final residual = 1.269215e-17, No Iterations 1
DILUPBiCGStab:  Solving for ILambda_12_0, Initial residual = 0.006721065, Final residual = 0.0002269551, No Iterations 4
DILUPBiCGStab:  Solving for ILambda_13_0, Initial residual = 0.01440831, Final residual = 0.00116635, No Iterations 5
DILUPBiCGStab:  Solving for ILambda_14_0, Initial residual = 0.02573068, Final residual = 0.002195208, No Iterations 4
DILUPBiCGStab:  Solving for ILambda_15_0, Initial residual = 0.02489252, Final residual = 0.002423634, No Iterations 3
Radiation solver iter: 14
DILUPBiCGStab:  Solving for ILambda_0_0, Initial residual = 0.01319409, Final residual = 9.099833e-18, No Iterations 1
DILUPBiCGStab:  Solving for ILambda_1_0, Initial residual = 0.007606139, Final residual = 3.113101e-18, No Iterations 1
DILUPBiCGStab:  Solving for ILambda_6_0, Initial residual = 0.007559786, Final residual = 0.0006064344, No Iterations 2
DILUPBiCGStab:  Solving for ILambda_7_0, Initial residual = 0.008061359, Final residual = 0.0007304324, No Iterations 2
DILUPBiCGStab:  Solving for ILambda_8_0, Initial residual = 0.007285363, Final residual = 4.719816e-18, No Iterations 1
DILUPBiCGStab:  Solving for ILambda_9_0, Initial residual = 0.01264908, Final residual = 8.211595e-18, No Iterations 1
DILUPBiCGStab:  Solving for ILambda_10_0, Initial residual = 0.008008635, Final residual = 8.082796e-18, No Iterations 1
DILUPBiCGStab:  Solving for ILambda_11_0, Initial residual = 0.004662876, Final residual = 1.054726e-17, No Iterations 1
DILUPBiCGStab:  Solving for ILambda_12_0, Initial residual = 0.005477563, Final residual = 0.0001801928, No Iterations 4
DILUPBiCGStab:  Solving for ILambda_13_0, Initial residual = 0.01132767, Final residual = 0.001032656, No Iterations 4
DILUPBiCGStab:  Solving for ILambda_14_0, Initial residual = 0.0213753, Final residual = 0.001273634, No Iterations 5
DILUPBiCGStab:  Solving for ILambda_15_0, Initial residual = 0.02125475, Final residual = 0.001296086, No Iterations 4
GAMG:  Solving for p_rgh, Initial residual = 0.0004343916, Final residual = 1.297214e-06, No Iterations 2
limitVelocity limitU Limited 0 (0%) of cells, with max limit 5
time step continuity errors : sum local = 6.396665e-06, global = 9.046356e-18, cumulative = 2.397298e-15
rho min/max : 0.4859288 0.949193
DILUPBiCGStab:  Solving for omega, Initial residual = 0.0001450303, Final residual = 4.003134e-06, No Iterations 1
DILUPBiCGStab:  Solving for k, Initial residual = 0.0001666479, Final residual = 9.003988e-06, No Iterations 1
ExecutionTime = 50.27 s  ClockTime = 50 s

surfaceFieldValue wallT write:
    areaAverage(plate) of T = 606.9598

surfaceFieldValue wallTriser write:
    areaAverage(riser) of T = 390.9098

End

