/*---------------------------------------------------------------------------*\
| =========                 |                                                 |
| \\      /  F ield         | OpenFOAM: The Open Source CFD Toolbox           |
|  \\    /   O peration     | Version:  2312                                  |
|   \\  /    A nd           | Website:  www.openfoam.com                      |
|    \\/     M anipulation  |                                                 |
\*---------------------------------------------------------------------------*/
Build  : _c39a0f64-20231220 OPENFOAM=2312 version=2312
Arch   : "LSB;label=32;scalar=64"
Exec   : buoyantSimpleFoam
Date   : Jul 02 2026
Time   : 08:53:26
Host   : 3a3abdd30845
PID    : 231
I/O    : uncollated
Case   : /case
nProcs : 1
trapFpe: Floating point exception trapping enabled (FOAM_SIGFPE).
fileModificationChecking : Monitoring run-time modified files using timeStampMaster (fileModificationSkew 5, maxFileModificationPolls 20)
allowSystemOperations : Allowing user-supplied system call operations

// * * * * * * * * * * * * * * * * * * * * * * * * * * * * * * * * * * * * * //
Create time

Create mesh for time = 4500


SIMPLE: convergence criteria
    field p_rgh	 tolerance 1e-05
    field U	 tolerance 1e-05
    field h	 tolerance 1e-05
    field "(k|omega)"	 tolerance 0.001

Reading thermophysical properties

Selecting thermodynamics package 
{
    type            heRhoThermo;
    mixture         pureMixture;
    transport       const;
    thermo          hConst;
    equationOfState perfectGas;
    specie          specie;
    energy          sensibleEnthalpy;
}

Reading field U

Reading/calculating face flux field phi

Creating turbulence model

Selecting turbulence model type RAS
Selecting RAS turbulence model kOmegaSST
Selecting patchDistMethod meshWave
RAS
{
    RASModel        kOmegaSST;
    turbulence      on;
    printCoeffs     on;
    alphaK1         0.85;
    alphaK2         1;
    alphaOmega1     0.5;
    alphaOmega2     0.856;
    gamma1          0.5555556;
    gamma2          0.44;
    beta1           0.075;
    beta2           0.0828;
    betaStar        0.09;
    a1              0.31;
    b1              1;
    c1              10;
    F3              false;
    decayControl    false;
    kInf            0;
    omegaInf        0;
}


Reading g

Reading hRef
Calculating field g.h

Reading field p_rgh

No MRF models present

Selecting radiationModel fvDOM
Selecting absorptionEmissionModel constantAbsorptionEmission
Selecting scatterModel none
Selecting sootModel none
fvDOM : Allocated 16 rays with average orientation:
	I0 : dAve : 	(0.1195698 0.6011177 2.944771e-33) : omega : 	0.7853982 : d : 	(0.1950903 0.9807853 6.123234e-17)
	I1 : dAve : 	(0.3405058 0.509603 2.944771e-33) : omega : 	0.7853982 : d : 	(0.5555702 0.8314696 6.123234e-17)
	I2 : dAve : 	(0.509603 0.3405058 2.944771e-33) : omega : 	0.7853982 : d : 	(0.8314696 0.5555702 6.123234e-17)
	I3 : dAve : 	(0.6011177 0.1195698 2.944771e-33) : omega : 	0.7853982 : d : 	(0.9807853 0.1950903 6.123234e-17)
	I4 : dAve : 	(0.6011177 -0.1195698 2.944771e-33) : omega : 	0.7853982 : d : 	(0.9807853 -0.1950903 6.123234e-17)
	I5 : dAve : 	(0.509603 -0.3405058 2.944771e-33) : omega : 	0.7853982 : d : 	(0.8314696 -0.5555702 6.123234e-17)
	I6 : dAve : 	(0.3405058 -0.509603 2.944771e-33) : omega : 	0.7853982 : d : 	(0.5555702 -0.8314696 6.123234e-17)
	I7 : dAve : 	(0.1195698 -0.6011177 2.944771e-33) : omega : 	0.7853982 : d : 	(0.1950903 -0.9807853 6.123234e-17)
	I8 : dAve : 	(-0.1195698 -0.6011177 2.944771e-33) : omega : 	0.7853982 : d : 	(-0.1950903 -0.9807853 6.123234e-17)
	I9 : dAve : 	(-0.3405058 -0.509603 2.944771e-33) : omega : 	0.7853982 : d : 	(-0.5555702 -0.8314696 6.123234e-17)
	I10 : dAve : 	(-0.509603 -0.3405058 2.944771e-33) : omega : 	0.7853982 : d : 	(-0.8314696 -0.5555702 6.123234e-17)
	I11 : dAve : 	(-0.6011177 -0.1195698 2.944771e-33) : omega : 	0.7853982 : d : 	(-0.9807853 -0.1950903 6.123234e-17)
	I12 : dAve : 	(-0.6011177 0.1195698 2.944771e-33) : omega : 	0.7853982 : d : 	(-0.9807853 0.1950903 6.123234e-17)
	I13 : dAve : 	(-0.509603 0.3405058 2.944771e-33) : omega : 	0.7853982 : d : 	(-0.8314696 0.5555702 6.123234e-17)
	I14 : dAve : 	(-0.3405058 0.509603 2.944771e-33) : omega : 	0.7853982 : d : 	(-0.5555702 0.8314696 6.123234e-17)
	I15 : dAve : 	(-0.1195698 0.6011177 2.944771e-33) : omega : 	0.7853982 : d : 	(-0.1950903 0.9807853 6.123234e-17)
Total omega : 12.56637

Creating finite volume options from "system/fvOptions"

Selecting finite volume options type limitTemperature
    Source: limitT
    - selecting all cells
    - selected 12000 cell(s) with volume 0.473422
Selecting finite volume options type limitVelocity
    Source: limitU
    - selecting all cells
    - selected 12000 cell(s) with volume 0.473422

Starting time loop

surfaceFieldValue wallT:
    operation     = areaAverage


surfaceFieldValue wallTriser:
    operation     = areaAverage


Time = 4501

DILUPBiCGStab:  Solving for h, Initial residual = 8.391966e-05, Final residual = 3.56989e-09, No Iterations 1
limitTemperature limitT Lower limited 0 (0%) of cells, with min limit 280
limitTemperature limitT Upper limited 0 (0%) of cells, with max limit 1200
limitTemperature limitT Unlimited Tmin 417.3276
limitTemperature limitT Unlimited Tmax 503.2005
Radiation solver iter: 0
Selecting boundary radiation Model: lookup
Selecting boundary radiation Model: lookup
Selecting boundary radiation Model: lookup
DILUPBiCGStab:  Solving for ILambda_0_0, Initial residual = 0.1037459, Final residual = 8.220255e-16, No Iterations 1
DILUPBiCGStab:  Solving for ILambda_1_0, Initial residual = 0.1822883, Final residual = 1.195351e-15, No Iterations 1
DILUPBiCGStab:  Solving for ILambda_2_0, Initial residual = 0.2717256, Final residual = 1.585073e-15, No Iterations 1
DILUPBiCGStab:  Solving for ILambda_3_0, Initial residual = 0.4091603, Final residual = 2.139169e-15, No Iterations 1
DILUPBiCGStab:  Solving for ILambda_4_0, Initial residual = 0.4104436, Final residual = 0.01446613, No Iterations 4
DILUPBiCGStab:  Solving for ILambda_5_0, Initial residual = 0.274407, Final residual = 0.02164772, No Iterations 11
DILUPBiCGStab:  Solving for ILambda_6_0, Initial residual = 0.1962282, Final residual = 0.007132249, No Iterations 20
DILUPBiCGStab:  Solving for ILambda_7_0, Initial residual = 0.1422042, Final residual = 0.01301742, No Iterations 25
DILUPBiCGStab:  Solving for ILambda_8_0, Initial residual = 0.209248, Final residual = 1.976752e-15, No Iterations 1
DILUPBiCGStab:  Solving for ILambda_9_0, Initial residual = 0.3351071, Final residual = 2.334965e-15, No Iterations 1
DILUPBiCGStab:  Solving for ILambda_10_0, Initial residual = 0.4546659, Final residual = 2.246939e-15, No Iterations 1
DILUPBiCGStab:  Solving for ILambda_11_0, Initial residual = 0.5855877, Final residual = 2.535508e-15, No Iterations 1
DILUPBiCGStab:  Solving for ILambda_12_0, Initial residual = 0.6307762, Final residual = 0.007721098, No Iterations 5
DILUPBiCGStab:  Solving for ILambda_13_0, Initial residual = 0.539149, Final residual = 0.04102027, No Iterations 10
DILUPBiCGStab:  Solving for ILambda_14_0, Initial residual = 0.4379364, Final residual = 0.02384796, No Iterations 15
DILUPBiCGStab:  Solving for ILambda_15_0, Initial residual = 0.3356807, Final residual = 0.03123113, No Iterations 26
Radiation solver iter: 1
DILUPBiCGStab:  Solving for ILambda_0_0, Initial residual = 0.03867521, Final residual = 8.791655e-17, No Iterations 1
DILUPBiCGStab:  Solving for ILambda_1_0, Initial residual = 0.05274905, Final residual = 1.147759e-16, No Iterations 1
DILUPBiCGStab:  Solving for ILambda_2_0, Initial residual = 0.06545069, Final residual = 1.308047e-16, No Iterations 1
DILUPBiCGStab:  Solving for ILambda_3_0, Initial residual = 0.0735588, Final residual = 1.729095e-16, No Iterations 1
DILUPBiCGStab:  Solving for ILambda_4_0, Initial residual = 0.09012274, Final residual = 0.006628569, No Iterations 4
DILUPBiCGStab:  Solving for ILambda_5_0, Initial residual = 0.08754456, Final residual = 0.003711817, No Iterations 9
DILUPBiCGStab:  Solving for ILambda_6_0, Initial residual = 0.06117718, Final residual = 0.004539581, No Iterations 10
DILUPBiCGStab:  Solving for ILambda_7_0, Initial residual = 0.0582788, Final residual = 0.004613615, No Iterations 21
DILUPBiCGStab:  Solving for ILambda_8_0, Initial residual = 0.03168426, Final residual = 1.363142e-16, No Iterations 1
DILUPBiCGStab:  Solving for ILambda_9_0, Initial residual = 0.03319255, Final residual = 1.158535e-16, No Iterations 1
DILUPBiCGStab:  Solving for ILambda_10_0, Initial residual = 0.03623943, Final residual = 1.293505e-16, No Iterations 1
DILUPBiCGStab:  Solving for ILambda_11_0, Initial residual = 0.04019236, Final residual = 1.584689e-16, No Iterations 1
DILUPBiCGStab:  Solving for ILambda_12_0, Initial residual = 0.05019733, Final residual = 0.0007300505, No Iterations 5
DILUPBiCGStab:  Solving for ILambda_13_0, Initial residual = 0.08352003, Final residual = 0.005216565, No Iterations 8
DILUPBiCGStab:  Solving for ILambda_14_0, Initial residual = 0.05795047, Final residual = 0.00320778, No Iterations 15
DILUPBiCGStab:  Solving for ILambda_15_0, Initial residual = 0.05926252, Final residual = 0.003374953, No Iterations 24
Radiation solver iter: 2
DILUPBiCGStab:  Solving for ILambda_0_0, Initial residual = 0.03068982, Final residual = 4.985048e-17, No Iterations 1
DILUPBiCGStab:  Solving for ILambda_1_0, Initial residual = 0.0377555, Final residual = 4.359207e-17, No Iterations 1
DILUPBiCGStab:  Solving for ILambda_2_0, Initial residual = 0.04366225, Final residual = 3.83131e-17, No Iterations 1
DILUPBiCGStab:  Solving for ILambda_3_0, Initial residual = 0.03643869, Final residual = 4.215392e-17, No Iterations 1
DILUPBiCGStab:  Solving for ILambda_4_0, Initial residual = 0.04255386, Final residual = 0.001820129, No Iterations 3
DILUPBiCGStab:  Solving for ILambda_5_0, Initial residual = 0.05189087, Final residual = 0.004842631, No Iterations 4
DILUPBiCGStab:  Solving for ILambda_6_0, Initial residual = 0.04572624, Final residual = 0.004425631, No Iterations 5
DILUPBiCGStab:  Solving for ILambda_7_0, Initial residual = 0.03893577, Final residual = 0.002362081, No Iterations 8
DILUPBiCGStab:  Solving for ILambda_8_0, Initial residual = 0.01746912, Final residual = 2.475864e-17, No Iterations 1
DILUPBiCGStab:  Solving for ILambda_9_0, Initial residual = 0.02038486, Final residual = 2.849574e-17, No Iterations 1
DILUPBiCGStab:  Solving for ILambda_10_0, Initial residual = 0.02159188, Final residual = 3.686611e-17, No Iterations 1
DILUPBiCGStab:  Solving for ILambda_11_0, Initial residual = 0.02025528, Final residual = 5.531886e-17, No Iterations 1
DILUPBiCGStab:  Solving for ILambda_12_0, Initial residual = 0.02146399, Final residual = 0.001186503, No Iterations 4
DILUPBiCGStab:  Solving for ILambda_13_0, Initial residual = 0.02676352, Final residual = 0.002480718, No Iterations 8
DILUPBiCGStab:  Solving for ILambda_14_0, Initial residual = 0.0262512, Final residual = 0.002147191, No Iterations 10
DILUPBiCGStab:  Solving for ILambda_15_0, Initial residual = 0.02694535, Final residual = 0.001530826, No Iterations 13
Radiation solver iter: 3
DILUPBiCGStab:  Solving for ILambda_0_0, Initial residual = 0.02635896, Final residual = 4.423556e-17, No Iterations 1
DILUPBiCGStab:  Solving for ILambda_1_0, Initial residual = 0.02918297, Final residual = 2.391861e-17, No Iterations 1
DILUPBiCGStab:  Solving for ILambda_2_0, Initial residual = 0.03038861, Final residual = 2.784554e-17, No Iterations 1
DILUPBiCGStab:  Solving for ILambda_3_0, Initial residual = 0.01800177, Final residual = 1.55783e-17, No Iterations 1
DILUPBiCGStab:  Solving for ILambda_4_0, Initial residual = 0.02077943, Final residual = 0.00110915, No Iterations 2
DILUPBiCGStab:  Solving for ILambda_5_0, Initial residual = 0.0385908, Final residual = 0.002441307, No Iterations 4
DILUPBiCGStab:  Solving for ILambda_6_0, Initial residual = 0.03707954, Final residual = 0.003158915, No Iterations 4
DILUPBiCGStab:  Solving for ILambda_7_0, Initial residual = 0.02814434, Final residual = 0.002689929, No Iterations 4
DILUPBiCGStab:  Solving for ILambda_8_0, Initial residual = 0.01413126, Final residual = 1.351745e-17, No Iterations 1
DILUPBiCGStab:  Solving for ILambda_9_0, Initial residual = 0.01845183, Final residual = 2.275105e-17, No Iterations 1
DILUPBiCGStab:  Solving for ILambda_10_0, Initial residual = 0.01971154, Final residual = 2.849815e-17, No Iterations 1
DILUPBiCGStab:  Solving for ILambda_11_0, Initial residual = 0.01531688, Final residual = 3.536007e-17, No Iterations 1
DILUPBiCGStab:  Solving for ILambda_12_0, Initial residual = 0.01623738, Final residual = 0.001187669, No Iterations 4
DILUPBiCGStab:  Solving for ILambda_13_0, Initial residual = 0.02252389, Final residual = 0.0006590229, No Iterations 8
DILUPBiCGStab:  Solving for ILambda_14_0, Initial residual = 0.0231615, Final residual = 0.002152516, No Iterations 11
DILUPBiCGStab:  Solving for ILambda_15_0, Initial residual = 0.02184121, Final residual = 0.001987653, No Iterations 9
Radiation solver iter: 4
DILUPBiCGStab:  Solving for ILambda_0_0, Initial residual = 0.0230613, Final residual = 3.586109e-17, No Iterations 1
DILUPBiCGStab:  Solving for ILambda_1_0, Initial residual = 0.02388426, Final residual = 1.860965e-17, No Iterations 1
DILUPBiCGStab:  Solving for ILambda_2_0, Initial residual = 0.02207646, Final residual = 1.632215e-17, No Iterations 1
DILUPBiCGStab:  Solving for ILambda_3_0, Initial residual = 0.008008061, Final residual = 6.582084e-18, No Iterations 1
DILUPBiCGStab:  Solving for ILambda_4_0, Initial residual = 0.009333212, Final residual = 0.0007792978, No Iterations 2
DILUPBiCGStab:  Solving for ILambda_5_0, Initial residual = 0.02849456, Final residual = 0.00248736, No Iterations 4
DILUPBiCGStab:  Solving for ILambda_6_0, Initial residual = 0.03145029, Final residual = 0.002546739, No Iterations 4
DILUPBiCGStab:  Solving for ILambda_7_0, Initial residual = 0.02265173, Final residual = 0.001745453, No Iterations 4
DILUPBiCGStab:  Solving for ILambda_8_0, Initial residual = 0.01221259, Final residual = 1.112815e-17, No Iterations 1
DILUPBiCGStab:  Solving for ILambda_9_0, Initial residual = 0.01723507, Final residual = 1.77737e-17, No Iterations 1
DILUPBiCGStab:  Solving for ILambda_10_0, Initial residual = 0.01758331, Final residual = 2.12456e-17, No Iterations 1
DILUPBiCGStab:  Solving for ILambda_11_0, Initial residual = 0.01123078, Final residual = 2.467491e-17, No Iterations 1
DILUPBiCGStab:  Solving for ILambda_12_0, Initial residual = 0.01159683, Final residual = 0.001096133, No Iterations 3
DILUPBiCGStab:  Solving for ILambda_13_0, Initial residual = 0.01928644, Final residual = 0.001857389, No Iterations 7
DILUPBiCGStab:  Solving for ILambda_14_0, Initial residual = 0.0208336, Final residual = 0.001165828, No Iterations 10
DILUPBiCGStab:  Solving for ILambda_15_0, Initial residual = 0.01934591, Final residual = 0.0008195957, No Iterations 11
Radiation solver iter: 5
DILUPBiCGStab:  Solving for ILambda_0_0, Initial residual = 0.02018456, Final residual = 2.809929e-17, No Iterations 1
DILUPBiCGStab:  Solving for ILambda_1_0, Initial residual = 0.01972652, Final residual = 1.402808e-17, No Iterations 1
DILUPBiCGStab:  Solving for ILambda_2_0, Initial residual = 0.01611572, Final residual = 1.053812e-17, No Iterations 1
DILUPBiCGStab:  Solving for ILambda_3_0, Initial residual = 0.003392232, Final residual = 2.468224e-18, No Iterations 1
DILUPBiCGStab:  Solving for ILambda_4_0, Initial residual = 0.004041611, Final residual = 0.0002691688, No Iterations 2
DILUPBiCGStab:  Solving for ILambda_5_0, Initial residual = 0.02061362, Final residual = 0.001530304, No Iterations 3
DILUPBiCGStab:  Solving for ILambda_6_0, Initial residual = 0.02598333, Final residual = 0.002179772, No Iterations 4
DILUPBiCGStab:  Solving for ILambda_7_0, Initial residual = 0.01901673, Final residual = 0.001493, No Iterations 4
DILUPBiCGStab:  Solving for ILambda_8_0, Initial residual = 0.010933, Final residual = 9.800868e-18, No Iterations 1
DILUPBiCGStab:  Solving for ILambda_9_0, Initial residual = 0.01574055, Final residual = 1.38136e-17, No Iterations 1
DILUPBiCGStab:  Solving for ILambda_10_0, Initial residual = 0.01492162, Final residual = 1.798493e-17, No Iterations 1
DILUPBiCGStab:  Solving for ILambda_11_0, Initial residual = 0.008668202, Final residual = 2.04429e-17, No Iterations 1
DILUPBiCGStab:  Solving for ILambda_12_0, Initial residual = 0.009132956, Final residual = 0.0003452851, No Iterations 4
DILUPBiCGStab:  Solving for ILambda_13_0, Initial residual = 0.01591552, Final residual = 0.001495101, No Iterations 6
DILUPBiCGStab:  Solving for ILambda_14_0, Initial residual = 0.0180765, Final residual = 0.001527473, No Iterations 8
DILUPBiCGStab:  Solving for ILambda_15_0, Initial residual = 0.01669504, Final residual = 0.001668039, No Iterations 6
Radiation solver iter: 6
DILUPBiCGStab:  Solving for ILambda_0_0, Initial residual = 0.01745646, Final residual = 2.065254e-17, No Iterations 1
DILUPBiCGStab:  Solving for ILambda_1_0, Initial residual = 0.01600177, Final residual = 1.03004e-17, No Iterations 1
DILUPBiCGStab:  Solving for ILambda_2_0, Initial residual = 0.01140288, Final residual = 6.947867e-18, No Iterations 1
DILUPBiCGStab:  Solving for ILambda_3_0, Initial residual = 0.001355312, Final residual = 1.005477e-18, No Iterations 1
DILUPBiCGStab:  Solving for ILambda_4_0, Initial residual = 0.00156891, Final residual = 9.761777e-05, No Iterations 2
DILUPBiCGStab:  Solving for ILambda_5_0, Initial residual = 0.0140476, Final residual = 0.0008761355, No Iterations 3
DILUPBiCGStab:  Solving for ILambda_6_0, Initial residual = 0.02091615, Final residual = 0.001330865, No Iterations 3
DILUPBiCGStab:  Solving for ILambda_7_0, Initial residual = 0.0161571, Final residual = 0.001256359, No Iterations 4
DILUPBiCGStab:  Solving for ILambda_8_0, Initial residual = 0.009713451, Final residual = 8.137684e-18, No Iterations 1
DILUPBiCGStab:  Solving for ILambda_9_0, Initial residual = 0.01414063, Final residual = 1.234997e-17, No Iterations 1
DILUPBiCGStab:  Solving for ILambda_10_0, Initial residual = 0.01239798, Final residual = 1.461728e-17, No Iterations 1
DILUPBiCGStab:  Solving for ILambda_11_0, Initial residual = 0.007180042, Final residual = 1.689073e-17, No Iterations 1
DILUPBiCGStab:  Solving for ILambda_12_0, Initial residual = 0.007242927, Final residual = 0.0002401655, No Iterations 4
DILUPBiCGStab:  Solving for ILambda_13_0, Initial residual = 0.01314513, Final residual = 0.0008962105, No Iterations 7
DILUPBiCGStab:  Solving for ILambda_14_0, Initial residual = 0.01581218, Final residual = 0.0003886224, No Iterations 10
DILUPBiCGStab:  Solving for ILambda_15_0, Initial residual = 0.01495316, Final residual = 0.001302792, No Iterations 7
Radiation solver iter: 7
DILUPBiCGStab:  Solving for ILambda_0_0, Initial residual = 0.01487589, Final residual = 1.645836e-17, No Iterations 1
DILUPBiCGStab:  Solving for ILambda_1_0, Initial residual = 0.01274952, Final residual = 7.480801e-18, No Iterations 1
DILUPBiCGStab:  Solving for ILambda_2_0, Initial residual = 0.007633008, Final residual = 4.519933e-18, No Iterations 1
DILUPBiCGStab:  Solving for ILambda_3_0, Initial residual = 0.0005009458, Final residual = 3.357805e-19, No Iterations 1
DILUPBiCGStab:  Solving for ILambda_4_0, Initial residual = 0.0005857968, Final residual = 9.915799e-05, No Iterations 1
DILUPBiCGStab:  Solving for ILambda_5_0, Initial residual = 0.008974199, Final residual = 0.0007819406, No Iterations 2
DILUPBiCGStab:  Solving for ILambda_6_0, Initial residual = 0.0169256, Final residual = 0.001572476, No Iterations 2
DILUPBiCGStab:  Solving for ILambda_7_0, Initial residual = 0.01355756, Final residual = 0.001246799, No Iterations 4
DILUPBiCGStab:  Solving for ILambda_8_0, Initial residual = 0.008450278, Final residual = 6.697939e-18, No Iterations 1
DILUPBiCGStab:  Solving for ILambda_9_0, Initial residual = 0.01258724, Final residual = 9.746186e-18, No Iterations 1
DILUPBiCGStab:  Solving for ILambda_10_0, Initial residual = 0.01017106, Final residual = 1.154991e-17, No Iterations 1
DILUPBiCGStab:  Solving for ILambda_11_0, Initial residual = 0.005697065, Final residual = 1.29176e-17, No Iterations 1
DILUPBiCGStab:  Solving for ILambda_12_0, Initial residual = 0.005857498, Final residual = 0.0002370942, No Iterations 4
DILUPBiCGStab:  Solving for ILambda_13_0, Initial residual = 0.0105757, Final residual = 0.001053131, No Iterations 5
DILUPBiCGStab:  Solving for ILambda_14_0, Initial residual = 0.01352374, Final residual = 0.00131443, No Iterations 7
DILUPBiCGStab:  Solving for ILambda_15_0, Initial residual = 0.01268688, Final residual = 0.001141606, No Iterations 7
Radiation solver iter: 8
DILUPBiCGStab:  Solving for ILambda_0_0, Initial residual = 0.01252008, Final residual = 1.24544e-17, No Iterations 1
DILUPBiCGStab:  Solving for ILambda_1_0, Initial residual = 0.01008694, Final residual = 5.832147e-18, No Iterations 1
DILUPBiCGStab:  Solving for ILambda_2_0, Initial residual = 0.004851195, Final residual = 2.20947e-18, No Iterations 1
DILUPBiCGStab:  Solving for ILambda_5_0, Initial residual = 0.005432043, Final residual = 0.0005218652, No Iterations 2
DILUPBiCGStab:  Solving for ILambda_6_0, Initial residual = 0.01357601, Final residual = 0.001023472, No Iterations 3
DILUPBiCGStab:  Solving for ILambda_7_0, Initial residual = 0.01153305, Final residual = 0.0006886318, No Iterations 4
DILUPBiCGStab:  Solving for ILambda_8_0, Initial residual = 0.007255802, Final residual = 4.747183e-18, No Iterations 1
DILUPBiCGStab:  Solving for ILambda_9_0, Initial residual = 0.01103527, Final residual = 7.992879e-18, No Iterations 1
DILUPBiCGStab:  Solving for ILambda_10_0, Initial residual = 0.008179807, Final residual = 9.078754e-18, No Iterations 1
DILUPBiCGStab:  Solving for ILambda_11_0, Initial residual = 0.004183334, Final residual = 9.338698e-18, No Iterations 1
DILUPBiCGStab:  Solving for ILambda_12_0, Initial residual = 0.004393648, Final residual = 0.0001844927, No Iterations 4
DILUPBiCGStab:  Solving for ILambda_13_0, Initial residual = 0.00869384, Final residual = 0.0006494019, No Iterations 6
DILUPBiCGStab:  Solving for ILambda_14_0, Initial residual = 0.01194248, Final residual = 0.001052146, No Iterations 4
DILUPBiCGStab:  Solving for ILambda_15_0, Initial residual = 0.01080369, Final residual = 0.0008730887, No Iterations 7
Radiation solver iter: 9
DILUPBiCGStab:  Solving for ILambda_0_0, Initial residual = 0.01047051, Final residual = 1.144195e-17, No Iterations 1
DILUPBiCGStab:  Solving for ILambda_1_0, Initial residual = 0.008005444, Final residual = 4.26562e-18, No Iterations 1
DILUPBiCGStab:  Solving for ILambda_2_0, Initial residual = 0.00296178, Final residual = 1.469247e-18, No Iterations 1
DILUPBiCGStab:  Solving for ILambda_5_0, Initial residual = 0.003142653, Final residual = 0.000200226, No Iterations 2
DILUPBiCGStab:  Solving for ILambda_6_0, Initial residual = 0.01085708, Final residual = 0.0009834742, No Iterations 2
DILUPBiCGStab:  Solving for ILambda_7_0, Initial residual = 0.009604079, Final residual = 0.0007710385, No Iterations 4
DILUPBiCGStab:  Solving for ILambda_8_0, Initial residual = 0.006190564, Final residual = 4.36219e-18, No Iterations 1
DILUPBiCGStab:  Solving for ILambda_9_0, Initial residual = 0.009592508, Final residual = 7.194992e-18, No Iterations 1
DILUPBiCGStab:  Solving for ILambda_10_0, Initial residual = 0.006549339, Final residual = 7.075395e-18, No Iterations 1
DILUPBiCGStab:  Solving for ILambda_11_0, Initial residual = 0.003036874, Final residual = 6.696631e-18, No Iterations 1
DILUPBiCGStab:  Solving for ILambda_12_0, Initial residual = 0.003221168, Final residual = 0.0001443322, No Iterations 4
DILUPBiCGStab:  Solving for ILambda_13_0, Initial residual = 0.007067915, Final residual = 0.0001799147, No Iterations 8
DILUPBiCGStab:  Solving for ILambda_14_0, Initial residual = 0.01033444, Final residual = 0.0008939036, No Iterations 6
DILUPBiCGStab:  Solving for ILambda_15_0, Initial residual = 0.009140625, Final residual = 0.0007000934, No Iterations 5
Radiation solver iter: 10
DILUPBiCGStab:  Solving for ILambda_0_0, Initial residual = 0.008679904, Final residual = 8.277827e-18, No Iterations 1
DILUPBiCGStab:  Solving for ILambda_1_0, Initial residual = 0.006391115, Final residual = 2.9975e-18, No Iterations 1
DILUPBiCGStab:  Solving for ILambda_2_0, Initial residual = 0.001746326, Final residual = 6.583764e-19, No Iterations 1
DILUPBiCGStab:  Solving for ILambda_5_0, Initial residual = 0.001760096, Final residual = 0.0001189977, No Iterations 2
DILUPBiCGStab:  Solving for ILambda_6_0, Initial residual = 0.008614171, Final residual = 0.0006855393, No Iterations 3
DILUPBiCGStab:  Solving for ILambda_7_0, Initial residual = 0.008046949, Final residual = 0.000703282, No Iterations 3
DILUPBiCGStab:  Solving for ILambda_8_0, Initial residual = 0.005283986, Final residual = 3.151789e-18, No Iterations 1
DILUPBiCGStab:  Solving for ILambda_9_0, Initial residual = 0.008255119, Final residual = 5.917286e-18, No Iterations 1
DILUPBiCGStab:  Solving for ILambda_10_0, Initial residual = 0.005232849, Final residual = 5.316996e-18, No Iterations 1
DILUPBiCGStab:  Solving for ILambda_11_0, Initial residual = 0.002281061, Final residual = 5.075893e-18, No Iterations 1
DILUPBiCGStab:  Solving for ILambda_12_0, Initial residual = 0.002426925, Final residual = 8.711545e-05, No Iterations 4
DILUPBiCGStab:  Solving for ILambda_13_0, Initial residual = 0.005633984, Final residual = 0.0003670908, No Iterations 6
DILUPBiCGStab:  Solving for ILambda_14_0, Initial residual = 0.008986367, Final residual = 0.0006651108, No Iterations 6
DILUPBiCGStab:  Solving for ILambda_15_0, Initial residual = 0.00773822, Final residual = 0.0001650694, No Iterations 7
Radiation solver iter: 11
DILUPBiCGStab:  Solving for ILambda_0_0, Initial residual = 0.007133612, Final residual = 6.063164e-18, No Iterations 1
DILUPBiCGStab:  Solving for ILambda_1_0, Initial residual = 0.005108823, Final residual = 2.288908e-18, No Iterations 1
DILUPBiCGStab:  Solving for ILambda_2_0, Initial residual = 0.0009984946, Final residual = 4.727628e-19, No Iterations 1
DILUPBiCGStab:  Solving for ILambda_5_0, Initial residual = 0.0009629278, Final residual = 5.478161e-05, No Iterations 2
DILUPBiCGStab:  Solving for ILambda_6_0, Initial residual = 0.006710329, Final residual = 0.0006192172, No Iterations 2
DILUPBiCGStab:  Solving for ILambda_7_0, Initial residual = 0.006662134, Final residual = 0.0002390476, No Iterations 4
DILUPBiCGStab:  Solving for ILambda_8_0, Initial residual = 0.004526447, Final residual = 2.696521e-18, No Iterations 1
DILUPBiCGStab:  Solving for ILambda_9_0, Initial residual = 0.007011399, Final residual = 4.58174e-18, No Iterations 1
DILUPBiCGStab:  Solving for ILambda_10_0, Initial residual = 0.004142777, Final residual = 4.341684e-18, No Iterations 1
DILUPBiCGStab:  Solving for ILambda_11_0, Initial residual = 0.001740892, Final residual = 3.778539e-18, No Iterations 1
DILUPBiCGStab:  Solving for ILambda_12_0, Initial residual = 0.001828974, Final residual = 6.072188e-05, No Iterations 4
DILUPBiCGStab:  Solving for ILambda_13_0, Initial residual = 0.004550059, Final residual = 0.0004283484, No Iterations 4
DILUPBiCGStab:  Solving for ILambda_14_0, Initial residual = 0.00762056, Final residual = 0.0005733261, No Iterations 4
DILUPBiCGStab:  Solving for ILambda_15_0, Initial residual = 0.00655451, Final residual = 0.0005622919, No Iterations 3
Radiation solver iter: 12
DILUPBiCGStab:  Solving for ILambda_0_0, Initial residual = 0.005820897, Final residual = 4.560347e-18, No Iterations 1
DILUPBiCGStab:  Solving for ILambda_1_0, Initial residual = 0.004038788, Final residual = 1.726579e-18, No Iterations 1
DILUPBiCGStab:  Solving for ILambda_6_0, Initial residual = 0.005188023, Final residual = 0.000398422, No Iterations 2
DILUPBiCGStab:  Solving for ILambda_7_0, Initial residual = 0.005448513, Final residual = 0.0004211798, No Iterations 2
DILUPBiCGStab:  Solving for ILambda_8_0, Initial residual = 0.003893678, Final residual = 2.208214e-18, No Iterations 1
DILUPBiCGStab:  Solving for ILambda_9_0, Initial residual = 0.005870627, Final residual = 3.93791e-18, No Iterations 1
DILUPBiCGStab:  Solving for ILambda_10_0, Initial residual = 0.003228123, Final residual = 3.188011e-18, No Iterations 1
DILUPBiCGStab:  Solving for ILambda_11_0, Initial residual = 0.001339994, Final residual = 2.872003e-18, No Iterations 1
DILUPBiCGStab:  Solving for ILambda_12_0, Initial residual = 0.001404826, Final residual = 4.357288e-05, No Iterations 4
DILUPBiCGStab:  Solving for ILambda_13_0, Initial residual = 0.00360981, Final residual = 0.0003000391, No Iterations 5
DILUPBiCGStab:  Solving for ILambda_14_0, Initial residual = 0.006467546, Final residual = 0.0006230219, No Iterations 3
DILUPBiCGStab:  Solving for ILambda_15_0, Initial residual = 0.005660059, Final residual = 0.0004044701, No Iterations 4
Radiation solver iter: 13
DILUPBiCGStab:  Solving for ILambda_0_0, Initial residual = 0.004723544, Final residual = 3.695467e-18, No Iterations 1
DILUPBiCGStab:  Solving for ILambda_1_0, Initial residual = 0.00314972, Final residual = 1.598781e-18, No Iterations 1
DILUPBiCGStab:  Solving for ILambda_6_0, Initial residual = 0.003892864, Final residual = 0.0001863353, No Iterations 2
DILUPBiCGStab:  Solving for ILambda_7_0, Initial residual = 0.004505075, Final residual = 0.0003771401, No Iterations 2
DILUPBiCGStab:  Solving for ILambda_8_0, Initial residual = 0.003373805, Final residual = 2.511425e-18, No Iterations 1
DILUPBiCGStab:  Solving for ILambda_9_0, Initial residual = 0.004876667, Final residual = 3.167755e-18, No Iterations 1
DILUPBiCGStab:  Solving for ILambda_10_0, Initial residual = 0.002516979, Final residual = 2.389124e-18, No Iterations 1
DILUPBiCGStab:  Solving for ILambda_11_0, Initial residual = 0.001089125, Final residual = 2.426114e-18, No Iterations 1
DILUPBiCGStab:  Solving for ILambda_12_0, Initial residual = 0.00115055, Final residual = 3.845228e-05, No Iterations 4
DILUPBiCGStab:  Solving for ILambda_13_0, Initial residual = 0.002832755, Final residual = 0.0002578783, No Iterations 4
DILUPBiCGStab:  Solving for ILambda_14_0, Initial residual = 0.005471913, Final residual = 0.0004418858, No Iterations 4
DILUPBiCGStab:  Solving for ILambda_15_0, Initial residual = 0.004862886, Final residual = 0.000485087, No Iterations 4
Radiation solver iter: 14
DILUPBiCGStab:  Solving for ILambda_0_0, Initial residual = 0.003825489, Final residual = 2.737113e-18, No Iterations 1
DILUPBiCGStab:  Solving for ILambda_1_0, Initial residual = 0.002401475, Final residual = 8.580209e-19, No Iterations 1
DILUPBiCGStab:  Solving for ILambda_6_0, Initial residual = 0.002820583, Final residual = 0.0002173838, No Iterations 2
DILUPBiCGStab:  Solving for ILambda_7_0, Initial residual = 0.003731486, Final residual = 0.0003666585, No Iterations 2
DILUPBiCGStab:  Solving for ILambda_8_0, Initial residual = 0.002915132, Final residual = 1.801962e-18, No Iterations 1
DILUPBiCGStab:  Solving for ILambda_9_0, Initial residual = 0.004003802, Final residual = 2.339686e-18, No Iterations 1
DILUPBiCGStab:  Solving for ILambda_10_0, Initial residual = 0.001959426, Final residual = 1.903766e-18, No Iterations 1
DILUPBiCGStab:  Solving for ILambda_11_0, Initial residual = 0.0008986774, Final residual = 1.982189e-18, No Iterations 1
DILUPBiCGStab:  Solving for ILambda_12_0, Initial residual = 0.0009468037, Final residual = 3.253429e-05, No Iterations 4
DILUPBiCGStab:  Solving for ILambda_13_0, Initial residual = 0.002210639, Final residual = 0.0002144528, No Iterations 4
DILUPBiCGStab:  Solving for ILambda_14_0, Initial residual = 0.004522993, Final residual = 0.0004302889, No Iterations 3
DILUPBiCGStab:  Solving for ILambda_15_0, Initial residual = 0.004176039, Final residual = 0.000164989, No Iterations 5
GAMG:  Solving for p_rgh, Initial residual = 0.03886586, Final residual = 5.743169e-05, No Iterations 2
limitVelocity limitU Limited 0 (0%) of cells, with max limit 5
time step continuity errors : sum local = 0.0003051067, global = -3.940113e-17, cumulative = 2.357897e-15
rho min/max : 0.5151729 0.947785
DILUPBiCGStab:  Solving for omega, Initial residual = 0.0002455491, Final residual = 8.387708e-06, No Iterations 1
DILUPBiCGStab:  Solving for k, Initial residual = 0.0003470891, Final residual = 1.713794e-05, No Iterations 1
ExecutionTime = 0.6 s  ClockTime = 1 s

Time = 4502

DILUPBiCGStab:  Solving for h, Initial residual = 8.748205e-05, Final residual = 2.701462e-09, No Iterations 1
limitTemperature limitT Lower limited 0 (0%) of cells, with min limit 280
limitTemperature limitT Upper limited 0 (0%) of cells, with max limit 1200
limitTemperature limitT Unlimited Tmin 417.3281
limitTemperature limitT Unlimited Tmax 503.3463
GAMG:  Solving for p_rgh, Initial residual = 0.03092774, Final residual = 4.542421e-05, No Iterations 2
limitVelocity limitU Limited 0 (0%) of cells, with max limit 5
time step continuity errors : sum local = 0.0002633273, global = -5.514583e-17, cumulative = 2.302751e-15
rho min/max : 0.5553486 0.9461275
DILUPBiCGStab:  Solving for omega, Initial residual = 0.000229693, Final residual = 8.969687e-06, No Iterations 1
DILUPBiCGStab:  Solving for k, Initial residual = 0.0003293042, Final residual = 1.845541e-05, No Iterations 1
ExecutionTime = 0.62 s  ClockTime = 1 s

Time = 4503

DILUPBiCGStab:  Solving for h, Initial residual = 8.145139e-05, Final residual = 2.301638e-09, No Iterations 1
limitTemperature limitT Lower limited 0 (0%) of cells, with min limit 280
limitTemperature limitT Upper limited 0 (0%) of cells, with max limit 1200
limitTemperature limitT Unlimited Tmin 417.3315
limitTemperature limitT Unlimited Tmax 503.4339
Radiation solver iter: 0
DILUPBiCGStab:  Solving for ILambda_0_0, Initial residual = 0.1614191, Final residual = 1.230566e-15, No Iterations 1
DILUPBiCGStab:  Solving for ILambda_1_0, Initial residual = 0.3022516, Final residual = 1.915763e-15, No Iterations 1
DILUPBiCGStab:  Solving for ILambda_2_0, Initial residual = 0.447479, Final residual = 2.4191e-15, No Iterations 1
DILUPBiCGStab:  Solving for ILambda_3_0, Initial residual = 0.6332483, Final residual = 3.181677e-15, No Iterations 1
DILUPBiCGStab:  Solving for ILambda_4_0, Initial residual = 0.644201, Final residual = 0.02965951, No Iterations 4
DILUPBiCGStab:  Solving for ILambda_5_0, Initial residual = 0.4683214, Final residual = 0.007357912, No Iterations 10
DILUPBiCGStab:  Solving for ILambda_6_0, Initial residual = 0.3309059, Final residual = 0.00268925, No Iterations 20
DILUPBiCGStab:  Solving for ILambda_7_0, Initial residual = 0.2127691, Final residual = 0.001260887, No Iterations 32
DILUPBiCGStab:  Solving for ILambda_8_0, Initial residual = 0.2246681, Final residual = 2.056499e-15, No Iterations 1
DILUPBiCGStab:  Solving for ILambda_9_0, Initial residual = 0.3420651, Final residual = 2.367814e-15, No Iterations 1
DILUPBiCGStab:  Solving for ILambda_10_0, Initial residual = 0.4482757, Final residual = 2.271877e-15, No Iterations 1
DILUPBiCGStab:  Solving for ILambda_11_0, Initial residual = 0.5628491, Final residual = 2.536347e-15, No Iterations 1
DILUPBiCGStab:  Solving for ILambda_12_0, Initial residual = 0.596303, Final residual = 0.04434534, No Iterations 4
DILUPBiCGStab:  Solving for ILambda_13_0, Initial residual = 0.5107508, Final residual = 0.02184522, No Iterations 11
DILUPBiCGStab:  Solving for ILambda_14_0, Initial residual = 0.4201534, Final residual = 0.02754258, No Iterations 17
DILUPBiCGStab:  Solving for ILambda_15_0, Initial residual = 0.3311948, Final residual = 0.03291554, No Iterations 22
Radiation solver iter: 1
DILUPBiCGStab:  Solving for ILambda_0_0, Initial residual = 0.09285187, Final residual = 1.94262e-16, No Iterations 1
DILUPBiCGStab:  Solving for ILambda_1_0, Initial residual = 0.1477084, Final residual = 3.124767e-16, No Iterations 1
DILUPBiCGStab:  Solving for ILambda_2_0, Initial residual = 0.1832893, Final residual = 3.373309e-16, No Iterations 1
DILUPBiCGStab:  Solving for ILambda_3_0, Initial residual = 0.1897211, Final residual = 3.929949e-16, No Iterations 1
DILUPBiCGStab:  Solving for ILambda_4_0, Initial residual = 0.2206392, Final residual = 0.01585553, No Iterations 4
DILUPBiCGStab:  Solving for ILambda_5_0, Initial residual = 0.1924973, Final residual = 0.01543844, No Iterations 7
DILUPBiCGStab:  Solving for ILambda_6_0, Initial residual = 0.1490355, Final residual = 0.006667213, No Iterations 11
DILUPBiCGStab:  Solving for ILambda_7_0, Initial residual = 0.1071565, Final residual = 0.007775368, No Iterations 16
DILUPBiCGStab:  Solving for ILambda_8_0, Initial residual = 0.03057828, Final residual = 1.158435e-16, No Iterations 1
DILUPBiCGStab:  Solving for ILambda_9_0, Initial residual = 0.04427015, Final residual = 1.35042e-16, No Iterations 1
DILUPBiCGStab:  Solving for ILambda_10_0, Initial residual = 0.05675211, Final residual = 1.649397e-16, No Iterations 1
DILUPBiCGStab:  Solving for ILambda_11_0, Initial residual = 0.06984136, Final residual = 2.579828e-16, No Iterations 1
DILUPBiCGStab:  Solving for ILambda_12_0, Initial residual = 0.1576525, Final residual = 0.01422645, No Iterations 3
DILUPBiCGStab:  Solving for ILambda_13_0, Initial residual = 0.1134998, Final residual = 0.01019795, No Iterations 9
DILUPBiCGStab:  Solving for ILambda_14_0, Initial residual = 0.1083741, Final residual = 0.01073877, No Iterations 16
DILUPBiCGStab:  Solving for ILambda_15_0, Initial residual = 0.1018388, Final residual = 0.007075978, No Iterations 22
Radiation solver iter: 2
DILUPBiCGStab:  Solving for ILambda_0_0, Initial residual = 0.08230963, Final residual = 1.3462e-16, No Iterations 1
DILUPBiCGStab:  Solving for ILambda_1_0, Initial residual = 0.1157968, Final residual = 1.308319e-16, No Iterations 1
DILUPBiCGStab:  Solving for ILambda_2_0, Initial residual = 0.1340591, Final residual = 1.315145e-16, No Iterations 1
DILUPBiCGStab:  Solving for ILambda_3_0, Initial residual = 0.1042864, Final residual = 1.249333e-16, No Iterations 1
DILUPBiCGStab:  Solving for ILambda_4_0, Initial residual = 0.1097139, Final residual = 0.004765179, No Iterations 3
DILUPBiCGStab:  Solving for ILambda_5_0, Initial residual = 0.1412324, Final residual = 0.01233868, No Iterations 4
DILUPBiCGStab:  Solving for ILambda_6_0, Initial residual = 0.1151805, Final residual = 0.009225178, No Iterations 5
DILUPBiCGStab:  Solving for ILambda_7_0, Initial residual = 0.07960138, Final residual = 0.006856875, No Iterations 6
DILUPBiCGStab:  Solving for ILambda_8_0, Initial residual = 0.02021911, Final residual = 3.02059e-17, No Iterations 1
DILUPBiCGStab:  Solving for ILambda_9_0, Initial residual = 0.03319207, Final residual = 5.137175e-17, No Iterations 1
DILUPBiCGStab:  Solving for ILambda_10_0, Initial residual = 0.04310104, Final residual = 7.602393e-17, No Iterations 1
DILUPBiCGStab:  Solving for ILambda_11_0, Initial residual = 0.04572038, Final residual = 1.242349e-16, No Iterations 1
DILUPBiCGStab:  Solving for ILambda_12_0, Initial residual = 0.06130885, Final residual = 0.00223083, No Iterations 4
DILUPBiCGStab:  Solving for ILambda_13_0, Initial residual = 0.06868078, Final residual = 0.004432405, No Iterations 8
DILUPBiCGStab:  Solving for ILambda_14_0, Initial residual = 0.06567384, Final residual = 0.005810412, No Iterations 11
DILUPBiCGStab:  Solving for ILambda_15_0, Initial residual = 0.05900201, Final residual = 0.005825964, No Iterations 11
Radiation solver iter: 3
DILUPBiCGStab:  Solving for ILambda_0_0, Initial residual = 0.07505255, Final residual = 1.212297e-16, No Iterations 1
DILUPBiCGStab:  Solving for ILambda_1_0, Initial residual = 0.0920324, Final residual = 7.881246e-17, No Iterations 1
DILUPBiCGStab:  Solving for ILambda_2_0, Initial residual = 0.09266097, Final residual = 7.243788e-17, No Iterations 1
DILUPBiCGStab:  Solving for ILambda_3_0, Initial residual = 0.04934184, Final residual = 4.537611e-17, No Iterations 1
DILUPBiCGStab:  Solving for ILambda_4_0, Initial residual = 0.05113356, Final residual = 0.003308466, No Iterations 2
DILUPBiCGStab:  Solving for ILambda_5_0, Initial residual = 0.09804734, Final residual = 0.007836143, No Iterations 4
DILUPBiCGStab:  Solving for ILambda_6_0, Initial residual = 0.09096862, Final residual = 0.007446555, No Iterations 4
DILUPBiCGStab:  Solving for ILambda_7_0, Initial residual = 0.05599063, Final residual = 0.004924182, No Iterations 4
DILUPBiCGStab:  Solving for ILambda_8_0, Initial residual = 0.01712003, Final residual = 1.883755e-17, No Iterations 1
DILUPBiCGStab:  Solving for ILambda_9_0, Initial residual = 0.03046305, Final residual = 3.451552e-17, No Iterations 1
DILUPBiCGStab:  Solving for ILambda_10_0, Initial residual = 0.03784157, Final residual = 5.116489e-17, No Iterations 1
DILUPBiCGStab:  Solving for ILambda_11_0, Initial residual = 0.03102559, Final residual = 6.496953e-17, No Iterations 1
DILUPBiCGStab:  Solving for ILambda_12_0, Initial residual = 0.03681022, Final residual = 0.003205583, No Iterations 3
DILUPBiCGStab:  Solving for ILambda_13_0, Initial residual = 0.0564454, Final residual = 0.001064555, No Iterations 9
DILUPBiCGStab:  Solving for ILambda_14_0, Initial residual = 0.05514609, Final residual = 0.004949136, No Iterations 8
DILUPBiCGStab:  Solving for ILambda_15_0, Initial residual = 0.05036516, Final residual = 0.0008290883, No Iterations 15
Radiation solver iter: 4
DILUPBiCGStab:  Solving for ILambda_0_0, Initial residual = 0.06788503, Final residual = 1.198775e-16, No Iterations 1
DILUPBiCGStab:  Solving for ILambda_1_0, Initial residual = 0.07515736, Final residual = 6.465857e-17, No Iterations 1
DILUPBiCGStab:  Solving for ILambda_2_0, Initial residual = 0.06530474, Final residual = 4.492232e-17, No Iterations 1
DILUPBiCGStab:  Solving for ILambda_3_0, Initial residual = 0.02125222, Final residual = 1.778255e-17, No Iterations 1
DILUPBiCGStab:  Solving for ILambda_4_0, Initial residual = 0.02179201, Final residual = 0.001860104, No Iterations 2
DILUPBiCGStab:  Solving for ILambda_5_0, Initial residual = 0.07097026, Final residual = 0.005860495, No Iterations 4
DILUPBiCGStab:  Solving for ILambda_6_0, Initial residual = 0.07353086, Final residual = 0.005518784, No Iterations 3
DILUPBiCGStab:  Solving for ILambda_7_0, Initial residual = 0.04183862, Final residual = 0.004180457, No Iterations 4
DILUPBiCGStab:  Solving for ILambda_8_0, Initial residual = 0.01530497, Final residual = 1.57977e-17, No Iterations 1
DILUPBiCGStab:  Solving for ILambda_9_0, Initial residual = 0.02882603, Final residual = 2.731357e-17, No Iterations 1
DILUPBiCGStab:  Solving for ILambda_10_0, Initial residual = 0.03309426, Final residual = 3.730884e-17, No Iterations 1
DILUPBiCGStab:  Solving for ILambda_11_0, Initial residual = 0.02278846, Final residual = 4.328708e-17, No Iterations 1
DILUPBiCGStab:  Solving for ILambda_12_0, Initial residual = 0.02713307, Final residual = 0.001848666, No Iterations 3
DILUPBiCGStab:  Solving for ILambda_13_0, Initial residual = 0.04708884, Final residual = 0.001991776, No Iterations 8
DILUPBiCGStab:  Solving for ILambda_14_0, Initial residual = 0.05154636, Final residual = 0.004927004, No Iterations 8
DILUPBiCGStab:  Solving for ILambda_15_0, Initial residual = 0.04414279, Final residual = 0.00274285, No Iterations 9
Radiation solver iter: 5
DILUPBiCGStab:  Solving for ILambda_0_0, Initial residual = 0.05999536, Final residual = 7.778151e-17, No Iterations 1
DILUPBiCGStab:  Solving for ILambda_1_0, Initial residual = 0.06119245, Final residual = 4.158337e-17, No Iterations 1
DILUPBiCGStab:  Solving for ILambda_2_0, Initial residual = 0.04621375, Final residual = 3.391265e-17, No Iterations 1
DILUPBiCGStab:  Solving for ILambda_3_0, Initial residual = 0.008835058, Final residual = 5.529051e-18, No Iterations 1
DILUPBiCGStab:  Solving for ILambda_4_0, Initial residual = 0.009334908, Final residual = 0.0006416416, No Iterations 2
DILUPBiCGStab:  Solving for ILambda_5_0, Initial residual = 0.04938293, Final residual = 0.002046199, No Iterations 4
DILUPBiCGStab:  Solving for ILambda_6_0, Initial residual = 0.05866099, Final residual = 0.005583629, No Iterations 3
DILUPBiCGStab:  Solving for ILambda_7_0, Initial residual = 0.03283898, Final residual = 0.00160744, No Iterations 5
DILUPBiCGStab:  Solving for ILambda_8_0, Initial residual = 0.01383674, Final residual = 1.113414e-17, No Iterations 1
DILUPBiCGStab:  Solving for ILambda_9_0, Initial residual = 0.02628791, Final residual = 2.188594e-17, No Iterations 1
DILUPBiCGStab:  Solving for ILambda_10_0, Initial residual = 0.02759699, Final residual = 2.993525e-17, No Iterations 1
DILUPBiCGStab:  Solving for ILambda_11_0, Initial residual = 0.01856258, Final residual = 4.420987e-17, No Iterations 1
DILUPBiCGStab:  Solving for ILambda_12_0, Initial residual = 0.02236883, Final residual = 0.001581305, No Iterations 3
DILUPBiCGStab:  Solving for ILambda_13_0, Initial residual = 0.03915321, Final residual = 0.001110783, No Iterations 8
DILUPBiCGStab:  Solving for ILambda_14_0, Initial residual = 0.04680303, Final residual = 0.001331833, No Iterations 10
DILUPBiCGStab:  Solving for ILambda_15_0, Initial residual = 0.04105787, Final residual = 0.001784818, No Iterations 10
Radiation solver iter: 6
DILUPBiCGStab:  Solving for ILambda_0_0, Initial residual = 0.05206935, Final residual = 6.579026e-17, No Iterations 1
DILUPBiCGStab:  Solving for ILambda_1_0, Initial residual = 0.04850432, Final residual = 3.471582e-17, No Iterations 1
DILUPBiCGStab:  Solving for ILambda_2_0, Initial residual = 0.0318194, Final residual = 1.971173e-17, No Iterations 1
DILUPBiCGStab:  Solving for ILambda_3_0, Initial residual = 0.003507294, Final residual = 1.941388e-18, No Iterations 1
DILUPBiCGStab:  Solving for ILambda_4_0, Initial residual = 0.003618291, Final residual = 0.0002233065, No Iterations 2
DILUPBiCGStab:  Solving for ILambda_5_0, Initial residual = 0.03263426, Final residual = 0.001334614, No Iterations 4
DILUPBiCGStab:  Solving for ILambda_6_0, Initial residual = 0.0461436, Final residual = 0.001992511, No Iterations 4
DILUPBiCGStab:  Solving for ILambda_7_0, Initial residual = 0.02575241, Final residual = 0.002442011, No Iterations 4
DILUPBiCGStab:  Solving for ILambda_8_0, Initial residual = 0.01226793, Final residual = 9.606055e-18, No Iterations 1
DILUPBiCGStab:  Solving for ILambda_9_0, Initial residual = 0.02339292, Final residual = 2.026874e-17, No Iterations 1
DILUPBiCGStab:  Solving for ILambda_10_0, Initial residual = 0.02276088, Final residual = 2.684332e-17, No Iterations 1
DILUPBiCGStab:  Solving for ILambda_11_0, Initial residual = 0.01657636, Final residual = 4.024261e-17, No Iterations 1
DILUPBiCGStab:  Solving for ILambda_12_0, Initial residual = 0.0196095, Final residual = 0.001584009, No Iterations 3
DILUPBiCGStab:  Solving for ILambda_13_0, Initial residual = 0.03189192, Final residual = 0.001682767, No Iterations 8
DILUPBiCGStab:  Solving for ILambda_14_0, Initial residual = 0.04077753, Final residual = 0.00379665, No Iterations 7
DILUPBiCGStab:  Solving for ILambda_15_0, Initial residual = 0.03704777, Final residual = 0.003304677, No Iterations 6
Radiation solver iter: 7
DILUPBiCGStab:  Solving for ILambda_0_0, Initial residual = 0.04442552, Final residual = 4.988333e-17, No Iterations 1
DILUPBiCGStab:  Solving for ILambda_1_0, Initial residual = 0.03770937, Final residual = 2.321326e-17, No Iterations 1
DILUPBiCGStab:  Solving for ILambda_2_0, Initial residual = 0.02089924, Final residual = 1.218e-17, No Iterations 1
DILUPBiCGStab:  Solving for ILambda_3_0, Initial residual = 0.00128338, Final residual = 7.939722e-19, No Iterations 1
DILUPBiCGStab:  Solving for ILambda_4_0, Initial residual = 0.001349404, Final residual = 0.0001006892, No Iterations 2
DILUPBiCGStab:  Solving for ILambda_5_0, Initial residual = 0.02070867, Final residual = 0.001094506, No Iterations 4
DILUPBiCGStab:  Solving for ILambda_6_0, Initial residual = 0.03552139, Final residual = 0.00273864, No Iterations 2
DILUPBiCGStab:  Solving for ILambda_7_0, Initial residual = 0.02078167, Final residual = 0.0002823011, No Iterations 6
DILUPBiCGStab:  Solving for ILambda_8_0, Initial residual = 0.01063641, Final residual = 7.911783e-18, No Iterations 1
DILUPBiCGStab:  Solving for ILambda_9_0, Initial residual = 0.02036305, Final residual = 1.608459e-17, No Iterations 1
DILUPBiCGStab:  Solving for ILambda_10_0, Initial residual = 0.01840563, Final residual = 2.179196e-17, No Iterations 1
DILUPBiCGStab:  Solving for ILambda_11_0, Initial residual = 0.01327653, Final residual = 3.123906e-17, No Iterations 1
DILUPBiCGStab:  Solving for ILambda_12_0, Initial residual = 0.01518999, Final residual = 0.001445986, No Iterations 3
DILUPBiCGStab:  Solving for ILambda_13_0, Initial residual = 0.02580465, Final residual = 0.00249173, No Iterations 7
DILUPBiCGStab:  Solving for ILambda_14_0, Initial residual = 0.03596314, Final residual = 0.002455618, No Iterations 8
DILUPBiCGStab:  Solving for ILambda_15_0, Initial residual = 0.0328548, Final residual = 0.002260208, No Iterations 7
Radiation solver iter: 8
DILUPBiCGStab:  Solving for ILambda_0_0, Initial residual = 0.03720367, Final residual = 3.814829e-17, No Iterations 1
DILUPBiCGStab:  Solving for ILambda_1_0, Initial residual = 0.0292485, Final residual = 1.516692e-17, No Iterations 1
DILUPBiCGStab:  Solving for ILambda_2_0, Initial residual = 0.01309204, Final residual = 6.637106e-18, No Iterations 1
DILUPBiCGStab:  Solving for ILambda_3_0, Initial residual = 0.0005035544, Final residual = 4.470684e-19, No Iterations 1
DILUPBiCGStab:  Solving for ILambda_4_0, Initial residual = 0.0005505995, Final residual = 7.275232e-05, No Iterations 2
DILUPBiCGStab:  Solving for ILambda_5_0, Initial residual = 0.01261222, Final residual = 0.001054138, No Iterations 3
DILUPBiCGStab:  Solving for ILambda_6_0, Initial residual = 0.02809138, Final residual = 0.002469347, No Iterations 2
DILUPBiCGStab:  Solving for ILambda_7_0, Initial residual = 0.01629823, Final residual = 0.001373299, No Iterations 2
DILUPBiCGStab:  Solving for ILambda_8_0, Initial residual = 0.009103097, Final residual = 6.685219e-18, No Iterations 1
DILUPBiCGStab:  Solving for ILambda_9_0, Initial residual = 0.01757169, Final residual = 1.375875e-17, No Iterations 1
DILUPBiCGStab:  Solving for ILambda_10_0, Initial residual = 0.01474291, Final residual = 1.798807e-17, No Iterations 1
DILUPBiCGStab:  Solving for ILambda_11_0, Initial residual = 0.009891089, Final residual = 2.374229e-17, No Iterations 1
DILUPBiCGStab:  Solving for ILambda_12_0, Initial residual = 0.01121939, Final residual = 0.0009303288, No Iterations 4
DILUPBiCGStab:  Solving for ILambda_13_0, Initial residual = 0.02125155, Final residual = 0.00206942, No Iterations 5
DILUPBiCGStab:  Solving for ILambda_14_0, Initial residual = 0.03093889, Final residual = 0.002854024, No Iterations 5
DILUPBiCGStab:  Solving for ILambda_15_0, Initial residual = 0.02844609, Final residual = 0.00271328, No Iterations 5
Radiation solver iter: 9
DILUPBiCGStab:  Solving for ILambda_0_0, Initial residual = 0.03074993, Final residual = 2.93889e-17, No Iterations 1
DILUPBiCGStab:  Solving for ILambda_1_0, Initial residual = 0.02286712, Final residual = 1.045514e-17, No Iterations 1
DILUPBiCGStab:  Solving for ILambda_2_0, Initial residual = 0.007880608, Final residual = 3.732187e-18, No Iterations 1
DILUPBiCGStab:  Solving for ILambda_5_0, Initial residual = 0.0074372, Final residual = 0.0005946106, No Iterations 2
DILUPBiCGStab:  Solving for ILambda_6_0, Initial residual = 0.02225629, Final residual = 0.001672773, No Iterations 3
DILUPBiCGStab:  Solving for ILambda_7_0, Initial residual = 0.01307091, Final residual = 0.00110804, No Iterations 2
DILUPBiCGStab:  Solving for ILambda_8_0, Initial residual = 0.007784762, Final residual = 6.70289e-18, No Iterations 1
DILUPBiCGStab:  Solving for ILambda_9_0, Initial residual = 0.01508544, Final residual = 1.240359e-17, No Iterations 1
DILUPBiCGStab:  Solving for ILambda_10_0, Initial residual = 0.01184049, Final residual = 1.365293e-17, No Iterations 1
DILUPBiCGStab:  Solving for ILambda_11_0, Initial residual = 0.007171941, Final residual = 1.669521e-17, No Iterations 1
DILUPBiCGStab:  Solving for ILambda_12_0, Initial residual = 0.008107867, Final residual = 6.874291e-05, No Iterations 5
DILUPBiCGStab:  Solving for ILambda_13_0, Initial residual = 0.01752882, Final residual = 0.001359122, No Iterations 6
DILUPBiCGStab:  Solving for ILambda_14_0, Initial residual = 0.02705728, Final residual = 0.002337026, No Iterations 6
DILUPBiCGStab:  Solving for ILambda_15_0, Initial residual = 0.02457313, Final residual = 0.001072009, No Iterations 7
Radiation solver iter: 10
DILUPBiCGStab:  Solving for ILambda_0_0, Initial residual = 0.02521244, Final residual = 2.21176e-17, No Iterations 1
DILUPBiCGStab:  Solving for ILambda_1_0, Initial residual = 0.01803032, Final residual = 8.817555e-18, No Iterations 1
DILUPBiCGStab:  Solving for ILambda_2_0, Initial residual = 0.004586169, Final residual = 2.243022e-18, No Iterations 1
DILUPBiCGStab:  Solving for ILambda_5_0, Initial residual = 0.004222558, Final residual = 0.0001322959, No Iterations 4
DILUPBiCGStab:  Solving for ILambda_6_0, Initial residual = 0.01771794, Final residual = 0.0001876408, No Iterations 4
DILUPBiCGStab:  Solving for ILambda_7_0, Initial residual = 0.01040494, Final residual = 0.0009161173, No Iterations 2
DILUPBiCGStab:  Solving for ILambda_8_0, Initial residual = 0.006663001, Final residual = 4.929969e-18, No Iterations 1
DILUPBiCGStab:  Solving for ILambda_9_0, Initial residual = 0.01291023, Final residual = 1.017866e-17, No Iterations 1
DILUPBiCGStab:  Solving for ILambda_10_0, Initial residual = 0.00959245, Final residual = 1.126571e-17, No Iterations 1
DILUPBiCGStab:  Solving for ILambda_11_0, Initial residual = 0.00536987, Final residual = 1.28958e-17, No Iterations 1
DILUPBiCGStab:  Solving for ILambda_12_0, Initial residual = 0.006257315, Final residual = 0.0002394079, No Iterations 4
DILUPBiCGStab:  Solving for ILambda_13_0, Initial residual = 0.01415146, Final residual = 0.000299885, No Iterations 8
DILUPBiCGStab:  Solving for ILambda_14_0, Initial residual = 0.02327035, Final residual = 0.001814025, No Iterations 4
DILUPBiCGStab:  Solving for ILambda_15_0, Initial residual = 0.02088894, Final residual = 0.001582994, No Iterations 5
Radiation solver iter: 11
DILUPBiCGStab:  Solving for ILambda_0_0, Initial residual = 0.02059787, Final residual = 1.763828e-17, No Iterations 1
DILUPBiCGStab:  Solving for ILambda_1_0, Initial residual = 0.01429369, Final residual = 6.840903e-18, No Iterations 1
DILUPBiCGStab:  Solving for ILambda_2_0, Initial residual = 0.002586481, Final residual = 1.094662e-18, No Iterations 1
DILUPBiCGStab:  Solving for ILambda_5_0, Initial residual = 0.002364482, Final residual = 0.000103691, No Iterations 3
DILUPBiCGStab:  Solving for ILambda_6_0, Initial residual = 0.01374481, Final residual = 0.000905902, No Iterations 3
DILUPBiCGStab:  Solving for ILambda_7_0, Initial residual = 0.008199674, Final residual = 0.0007548347, No Iterations 2
DILUPBiCGStab:  Solving for ILambda_8_0, Initial residual = 0.005746018, Final residual = 4.925438e-18, No Iterations 1
DILUPBiCGStab:  Solving for ILambda_9_0, Initial residual = 0.01095111, Final residual = 8.166104e-18, No Iterations 1
DILUPBiCGStab:  Solving for ILambda_10_0, Initial residual = 0.007769097, Final residual = 8.395447e-18, No Iterations 1
DILUPBiCGStab:  Solving for ILambda_11_0, Initial residual = 0.004145334, Final residual = 9.460707e-18, No Iterations 1
DILUPBiCGStab:  Solving for ILambda_12_0, Initial residual = 0.004898119, Final residual = 0.0001865377, No Iterations 4
DILUPBiCGStab:  Solving for ILambda_13_0, Initial residual = 0.01105111, Final residual = 0.0008172132, No Iterations 6
DILUPBiCGStab:  Solving for ILambda_14_0, Initial residual = 0.0196303, Final residual = 0.001803854, No Iterations 5
DILUPBiCGStab:  Solving for ILambda_15_0, Initial residual = 0.01820626, Final residual = 0.001258502, No Iterations 5
Radiation solver iter: 12
DILUPBiCGStab:  Solving for ILambda_0_0, Initial residual = 0.01677635, Final residual = 1.858532e-17, No Iterations 1
DILUPBiCGStab:  Solving for ILambda_1_0, Initial residual = 0.01122407, Final residual = 4.798697e-18, No Iterations 1
DILUPBiCGStab:  Solving for ILambda_2_0, Initial residual = 0.001414487, Final residual = 6.284881e-19, No Iterations 1
DILUPBiCGStab:  Solving for ILambda_5_0, Initial residual = 0.001310727, Final residual = 0.0001040646, No Iterations 2
DILUPBiCGStab:  Solving for ILambda_6_0, Initial residual = 0.01064089, Final residual = 0.001060361, No Iterations 2
DILUPBiCGStab:  Solving for ILambda_7_0, Initial residual = 0.006408325, Final residual = 0.0006280023, No Iterations 2
DILUPBiCGStab:  Solving for ILambda_8_0, Initial residual = 0.004951399, Final residual = 3.329421e-18, No Iterations 1
DILUPBiCGStab:  Solving for ILambda_9_0, Initial residual = 0.009167853, Final residual = 7.421491e-18, No Iterations 1
DILUPBiCGStab:  Solving for ILambda_10_0, Initial residual = 0.006231499, Final residual = 6.740553e-18, No Iterations 1
DILUPBiCGStab:  Solving for ILambda_11_0, Initial residual = 0.003283916, Final residual = 7.474352e-18, No Iterations 1
DILUPBiCGStab:  Solving for ILambda_12_0, Initial residual = 0.003867134, Final residual = 0.0001400603, No Iterations 4
DILUPBiCGStab:  Solving for ILambda_13_0, Initial residual = 0.008798117, Final residual = 0.0007991415, No Iterations 5
DILUPBiCGStab:  Solving for ILambda_14_0, Initial residual = 0.01650757, Final residual = 0.00141727, No Iterations 4
DILUPBiCGStab:  Solving for ILambda_15_0, Initial residual = 0.01571293, Final residual = 0.00146671, No Iterations 5
Radiation solver iter: 13
DILUPBiCGStab:  Solving for ILambda_0_0, Initial residual = 0.01366351, Final residual = 1.011282e-17, No Iterations 1
DILUPBiCGStab:  Solving for ILambda_1_0, Initial residual = 0.008704209, Final residual = 3.226847e-18, No Iterations 1
DILUPBiCGStab:  Solving for ILambda_2_0, Initial residual = 0.0007548136, Final residual = 5.135756e-19, No Iterations 1
DILUPBiCGStab:  Solving for ILambda_5_0, Initial residual = 0.0007139198, Final residual = 9.451317e-05, No Iterations 2
DILUPBiCGStab:  Solving for ILambda_6_0, Initial residual = 0.008142901, Final residual = 0.0005327792, No Iterations 2
DILUPBiCGStab:  Solving for ILambda_7_0, Initial residual = 0.004980256, Final residual = 0.0003888209, No Iterations 3
DILUPBiCGStab:  Solving for ILambda_8_0, Initial residual = 0.004242213, Final residual = 3.084584e-18, No Iterations 1
DILUPBiCGStab:  Solving for ILambda_9_0, Initial residual = 0.007566064, Final residual = 4.817736e-18, No Iterations 1
DILUPBiCGStab:  Solving for ILambda_10_0, Initial residual = 0.004941529, Final residual = 4.829116e-18, No Iterations 1
DILUPBiCGStab:  Solving for ILambda_11_0, Initial residual = 0.002669482, Final residual = 5.84293e-18, No Iterations 1
DILUPBiCGStab:  Solving for ILambda_12_0, Initial residual = 0.003158038, Final residual = 0.0001128957, No Iterations 4
DILUPBiCGStab:  Solving for ILambda_13_0, Initial residual = 0.007108017, Final residual = 0.0006475184, No Iterations 4
DILUPBiCGStab:  Solving for ILambda_14_0, Initial residual = 0.01374613, Final residual = 0.001351503, No Iterations 3
DILUPBiCGStab:  Solving for ILambda_15_0, Initial residual = 0.01362654, Final residual = 0.001130315, No Iterations 4
Radiation solver iter: 14
DILUPBiCGStab:  Solving for ILambda_0_0, Initial residual = 0.01111235, Final residual = 1.043874e-17, No Iterations 1
DILUPBiCGStab:  Solving for ILambda_1_0, Initial residual = 0.006617724, Final residual = 2.402911e-18, No Iterations 1
DILUPBiCGStab:  Solving for ILambda_6_0, Initial residual = 0.005971078, Final residual = 0.0005186409, No Iterations 2
DILUPBiCGStab:  Solving for ILambda_7_0, Initial residual = 0.003820731, Final residual = 0.0003269394, No Iterations 3
DILUPBiCGStab:  Solving for ILambda_8_0, Initial residual = 0.003601488, Final residual = 2.197724e-18, No Iterations 1
DILUPBiCGStab:  Solving for ILambda_9_0, Initial residual = 0.00617251, Final residual = 3.803225e-18, No Iterations 1
DILUPBiCGStab:  Solving for ILambda_10_0, Initial residual = 0.003887211, Final residual = 3.721648e-18, No Iterations 1
DILUPBiCGStab:  Solving for ILambda_11_0, Initial residual = 0.002192736, Final residual = 4.78943e-18, No Iterations 1
DILUPBiCGStab:  Solving for ILambda_12_0, Initial residual = 0.002586097, Final residual = 8.862368e-05, No Iterations 4
DILUPBiCGStab:  Solving for ILambda_13_0, Initial residual = 0.00564788, Final residual = 0.0004711495, No Iterations 5
DILUPBiCGStab:  Solving for ILambda_14_0, Initial residual = 0.01135589, Final residual = 0.001028448, No Iterations 3
DILUPBiCGStab:  Solving for ILambda_15_0, Initial residual = 0.01159429, Final residual = 0.001111181, No Iterations 4
GAMG:  Solving for p_rgh, Initial residual = 0.02409339, Final residual = 3.721043e-05, No Iterations 2
limitVelocity limitU Limited 0 (0%) of cells, with max limit 5
time step continuity errors : sum local = 0.0002265756, global = -4.923799e-18, cumulative = 2.297827e-15
rho min/max : 0.5278038 0.9446078
DILUPBiCGStab:  Solving for omega, Initial residual = 0.00021747, Final residual = 7.503682e-06, No Iterations 1
DILUPBiCGStab:  Solving for k, Initial residual = 0.0002910289, Final residual = 1.61623e-05, No Iterations 1
ExecutionTime = 1.1 s  ClockTime = 1 s

Time = 4504

DILUPBiCGStab:  Solving for h, Initial residual = 7.500529e-05, Final residual = 1.737285e-09, No Iterations 1
limitTemperature limitT Lower limited 0 (0%) of cells, with min limit 280
limitTemperature limitT Upper limited 0 (0%) of cells, with max limit 1200
limitTemperature limitT Unlimited Tmin 417.3357
limitTemperature limitT Unlimited Tmax 503.465
GAMG:  Solving for p_rgh, Initial residual = 0.01742106, Final residual = 3.031916e-05, No Iterations 2
limitVelocity limitU Limited 0 (0%) of cells, with max limit 5
time step continuity errors : sum local = 0.0001905518, global = 1.444487e-17, cumulative = 2.312272e-15
rho min/max : 0.5637727 0.9452418
DILUPBiCGStab:  Solving for omega, Initial residual = 0.0001711145, Final residual = 5.613632e-06, No Iterations 1
DILUPBiCGStab:  Solving for k, Initial residual = 0.0002676698, Final residual = 1.481538e-05, No Iterations 1
ExecutionTime = 1.12 s  ClockTime = 1 s

Time = 4505

DILUPBiCGStab:  Solving for h, Initial residual = 7.666394e-05, Final residual = 1.966685e-09, No Iterations 1
limitTemperature limitT Lower limited 0 (0%) of cells, with min limit 280
limitTemperature limitT Upper limited 0 (0%) of cells, with max limit 1200
limitTemperature limitT Unlimited Tmin 417.3379
limitTemperature limitT Unlimited Tmax 503.5314
GAMG:  Solving for p_rgh, Initial residual = 0.0116021, Final residual = 2.609366e-05, No Iterations 2
limitVelocity limitU Limited 0 (0%) of cells, with max limit 5
time step continuity errors : sum local = 0.0001608879, global = -2.171651e-17, cumulative = 2.290556e-15
rho min/max : 0.5469612 0.9458259
DILUPBiCGStab:  Solving for omega, Initial residual = 0.0001651292, Final residual = 5.860666e-06, No Iterations 1
DILUPBiCGStab:  Solving for k, Initial residual = 0.0002801648, Final residual = 1.50282e-05, No Iterations 1
ExecutionTime = 1.13 s  ClockTime = 1 s

Time = 4506

DILUPBiCGStab:  Solving for h, Initial residual = 7.971302e-05, Final residual = 2.671128e-09, No Iterations 1
limitTemperature limitT Lower limited 0 (0%) of cells, with min limit 280
limitTemperature limitT Upper limited 0 (0%) of cells, with max limit 1200
limitTemperature limitT Unlimited Tmin 417.3391
limitTemperature limitT Unlimited Tmax 503.6306
Radiation solver iter: 0
DILUPBiCGStab:  Solving for ILambda_0_0, Initial residual = 0.1234859, Final residual = 5.495801e-16, No Iterations 1
DILUPBiCGStab:  Solving for ILambda_1_0, Initial residual = 0.2260058, Final residual = 9.917355e-16, No Iterations 1
DILUPBiCGStab:  Solving for ILambda_2_0, Initial residual = 0.3487281, Final residual = 1.418036e-15, No Iterations 1
DILUPBiCGStab:  Solving for ILambda_3_0, Initial residual = 0.5351608, Final residual = 2.388339e-15, No Iterations 1
DILUPBiCGStab:  Solving for ILambda_4_0, Initial residual = 0.547247, Final residual = 0.02545755, No Iterations 4
DILUPBiCGStab:  Solving for ILambda_5_0, Initial residual = 0.3634861, Final residual = 0.03080365, No Iterations 9
DILUPBiCGStab:  Solving for ILambda_6_0, Initial residual = 0.240511, Final residual = 0.00868697, No Iterations 19
DILUPBiCGStab:  Solving for ILambda_7_0, Initial residual = 0.1408321, Final residual = 0.006169832, No Iterations 27
DILUPBiCGStab:  Solving for ILambda_8_0, Initial residual = 0.06904238, Final residual = 5.415641e-16, No Iterations 1
DILUPBiCGStab:  Solving for ILambda_9_0, Initial residual = 0.125865, Final residual = 8.028715e-16, No Iterations 1
DILUPBiCGStab:  Solving for ILambda_10_0, Initial residual = 0.1813769, Final residual = 9.476965e-16, No Iterations 1
DILUPBiCGStab:  Solving for ILambda_11_0, Initial residual = 0.2526623, Final residual = 1.258658e-15, No Iterations 1
DILUPBiCGStab:  Solving for ILambda_12_0, Initial residual = 0.2838224, Final residual = 0.008410312, No Iterations 4
DILUPBiCGStab:  Solving for ILambda_13_0, Initial residual = 0.2352487, Final residual = 0.01776631, No Iterations 10
DILUPBiCGStab:  Solving for ILambda_14_0, Initial residual = 0.1880173, Final residual = 0.005588735, No Iterations 14
DILUPBiCGStab:  Solving for ILambda_15_0, Initial residual = 0.1479326, Final residual = 0.01451151, No Iterations 29
Radiation solver iter: 1
DILUPBiCGStab:  Solving for ILambda_0_0, Initial residual = 0.1018933, Final residual = 1.868461e-16, No Iterations 1
DILUPBiCGStab:  Solving for ILambda_1_0, Initial residual = 0.1446111, Final residual = 2.641837e-16, No Iterations 1
DILUPBiCGStab:  Solving for ILambda_2_0, Initial residual = 0.165572, Final residual = 2.615964e-16, No Iterations 1
DILUPBiCGStab:  Solving for ILambda_3_0, Initial residual = 0.1540917, Final residual = 2.839982e-16, No Iterations 1
DILUPBiCGStab:  Solving for ILambda_4_0, Initial residual = 0.1595833, Final residual = 0.01575847, No Iterations 3
DILUPBiCGStab:  Solving for ILambda_5_0, Initial residual = 0.1764599, Final residual = 0.01599259, No Iterations 7
DILUPBiCGStab:  Solving for ILambda_6_0, Initial residual = 0.1402333, Final residual = 0.01109905, No Iterations 9
DILUPBiCGStab:  Solving for ILambda_7_0, Initial residual = 0.1008684, Final residual = 0.009155951, No Iterations 5
DILUPBiCGStab:  Solving for ILambda_8_0, Initial residual = 0.02061353, Final residual = 3.878034e-17, No Iterations 1
DILUPBiCGStab:  Solving for ILambda_9_0, Initial residual = 0.03319574, Final residual = 7.2783e-17, No Iterations 1
DILUPBiCGStab:  Solving for ILambda_10_0, Initial residual = 0.04123073, Final residual = 9.680251e-17, No Iterations 1
DILUPBiCGStab:  Solving for ILambda_11_0, Initial residual = 0.04806988, Final residual = 1.587696e-16, No Iterations 1
DILUPBiCGStab:  Solving for ILambda_12_0, Initial residual = 0.06208431, Final residual = 0.005911143, No Iterations 3
DILUPBiCGStab:  Solving for ILambda_13_0, Initial residual = 0.07227268, Final residual = 0.005293444, No Iterations 8
DILUPBiCGStab:  Solving for ILambda_14_0, Initial residual = 0.05597551, Final residual = 0.002160932, No Iterations 13
DILUPBiCGStab:  Solving for ILambda_15_0, Initial residual = 0.06406744, Final residual = 0.005080144, No Iterations 19
Radiation solver iter: 2
DILUPBiCGStab:  Solving for ILambda_0_0, Initial residual = 0.08896809, Final residual = 1.508508e-16, No Iterations 1
DILUPBiCGStab:  Solving for ILambda_1_0, Initial residual = 0.1105163, Final residual = 1.371422e-16, No Iterations 1
DILUPBiCGStab:  Solving for ILambda_2_0, Initial residual = 0.1203873, Final residual = 1.20388e-16, No Iterations 1
DILUPBiCGStab:  Solving for ILambda_3_0, Initial residual = 0.08869507, Final residual = 1.026327e-16, No Iterations 1
DILUPBiCGStab:  Solving for ILambda_4_0, Initial residual = 0.09244629, Final residual = 0.009018428, No Iterations 2
DILUPBiCGStab:  Solving for ILambda_5_0, Initial residual = 0.1213516, Final residual = 0.007878512, No Iterations 6
DILUPBiCGStab:  Solving for ILambda_6_0, Initial residual = 0.1075652, Final residual = 0.008064792, No Iterations 6
DILUPBiCGStab:  Solving for ILambda_7_0, Initial residual = 0.0699819, Final residual = 0.006931732, No Iterations 4
DILUPBiCGStab:  Solving for ILambda_8_0, Initial residual = 0.01747521, Final residual = 1.819291e-17, No Iterations 1
DILUPBiCGStab:  Solving for ILambda_9_0, Initial residual = 0.02980238, Final residual = 4.201291e-17, No Iterations 1
DILUPBiCGStab:  Solving for ILambda_10_0, Initial residual = 0.03710063, Final residual = 6.547319e-17, No Iterations 1
DILUPBiCGStab:  Solving for ILambda_11_0, Initial residual = 0.03795953, Final residual = 1.023145e-16, No Iterations 1
DILUPBiCGStab:  Solving for ILambda_12_0, Initial residual = 0.045202, Final residual = 0.0008232119, No Iterations 5
DILUPBiCGStab:  Solving for ILambda_13_0, Initial residual = 0.05358963, Final residual = 0.003590558, No Iterations 8
DILUPBiCGStab:  Solving for ILambda_14_0, Initial residual = 0.04934576, Final residual = 0.003894388, No Iterations 11
DILUPBiCGStab:  Solving for ILambda_15_0, Initial residual = 0.05235844, Final residual = 0.004908134, No Iterations 13
Radiation solver iter: 3
DILUPBiCGStab:  Solving for ILambda_0_0, Initial residual = 0.0764382, Final residual = 1.234405e-16, No Iterations 1
DILUPBiCGStab:  Solving for ILambda_1_0, Initial residual = 0.08276697, Final residual = 7.097087e-17, No Iterations 1
DILUPBiCGStab:  Solving for ILambda_2_0, Initial residual = 0.07963379, Final residual = 6.273251e-17, No Iterations 1
DILUPBiCGStab:  Solving for ILambda_3_0, Initial residual = 0.04130369, Final residual = 3.585572e-17, No Iterations 1
DILUPBiCGStab:  Solving for ILambda_4_0, Initial residual = 0.04283466, Final residual = 0.002200442, No Iterations 2
DILUPBiCGStab:  Solving for ILambda_5_0, Initial residual = 0.08162318, Final residual = 0.006523581, No Iterations 4
DILUPBiCGStab:  Solving for ILambda_6_0, Initial residual = 0.0820372, Final residual = 0.007594163, No Iterations 4
DILUPBiCGStab:  Solving for ILambda_7_0, Initial residual = 0.04913201, Final residual = 0.004149565, No Iterations 4
DILUPBiCGStab:  Solving for ILambda_8_0, Initial residual = 0.01567322, Final residual = 1.625929e-17, No Iterations 1
DILUPBiCGStab:  Solving for ILambda_9_0, Initial residual = 0.02853128, Final residual = 3.366476e-17, No Iterations 1
DILUPBiCGStab:  Solving for ILambda_10_0, Initial residual = 0.03436179, Final residual = 4.41931e-17, No Iterations 1
DILUPBiCGStab:  Solving for ILambda_11_0, Initial residual = 0.02759569, Final residual = 6.314612e-17, No Iterations 1
DILUPBiCGStab:  Solving for ILambda_12_0, Initial residual = 0.03123964, Final residual = 0.001521147, No Iterations 4
DILUPBiCGStab:  Solving for ILambda_13_0, Initial residual = 0.04849715, Final residual = 0.004536654, No Iterations 7
DILUPBiCGStab:  Solving for ILambda_14_0, Initial residual = 0.04833216, Final residual = 0.004228688, No Iterations 11
DILUPBiCGStab:  Solving for ILambda_15_0, Initial residual = 0.04699012, Final residual = 0.0008972445, No Iterations 15
Radiation solver iter: 4
DILUPBiCGStab:  Solving for ILambda_0_0, Initial residual = 0.06469578, Final residual = 9.605135e-17, No Iterations 1
DILUPBiCGStab:  Solving for ILambda_1_0, Initial residual = 0.06457461, Final residual = 4.793263e-17, No Iterations 1
DILUPBiCGStab:  Solving for ILambda_2_0, Initial residual = 0.05447912, Final residual = 3.922162e-17, No Iterations 1
DILUPBiCGStab:  Solving for ILambda_3_0, Initial residual = 0.01780016, Final residual = 1.434461e-17, No Iterations 1
DILUPBiCGStab:  Solving for ILambda_4_0, Initial residual = 0.01779156, Final residual = 0.001527488, No Iterations 2
DILUPBiCGStab:  Solving for ILambda_5_0, Initial residual = 0.05864654, Final residual = 0.0004487909, No Iterations 6
DILUPBiCGStab:  Solving for ILambda_6_0, Initial residual = 0.06503382, Final residual = 0.004562522, No Iterations 3
DILUPBiCGStab:  Solving for ILambda_7_0, Initial residual = 0.03593082, Final residual = 0.003010711, No Iterations 4
DILUPBiCGStab:  Solving for ILambda_8_0, Initial residual = 0.01418498, Final residual = 1.273502e-17, No Iterations 1
DILUPBiCGStab:  Solving for ILambda_9_0, Initial residual = 0.02690058, Final residual = 2.594911e-17, No Iterations 1
DILUPBiCGStab:  Solving for ILambda_10_0, Initial residual = 0.03003974, Final residual = 3.366381e-17, No Iterations 1
DILUPBiCGStab:  Solving for ILambda_11_0, Initial residual = 0.0203281, Final residual = 3.992621e-17, No Iterations 1
DILUPBiCGStab:  Solving for ILambda_12_0, Initial residual = 0.02309778, Final residual = 0.001705868, No Iterations 3
DILUPBiCGStab:  Solving for ILambda_13_0, Initial residual = 0.04145395, Final residual = 0.003460443, No Iterations 6
DILUPBiCGStab:  Solving for ILambda_14_0, Initial residual = 0.04488204, Final residual = 0.00276506, No Iterations 10
DILUPBiCGStab:  Solving for ILambda_15_0, Initial residual = 0.04171371, Final residual = 0.003920086, No Iterations 7
Radiation solver iter: 5
DILUPBiCGStab:  Solving for ILambda_0_0, Initial residual = 0.05368602, Final residual = 8.185176e-17, No Iterations 1
DILUPBiCGStab:  Solving for ILambda_1_0, Initial residual = 0.05099078, Final residual = 3.542246e-17, No Iterations 1
DILUPBiCGStab:  Solving for ILambda_2_0, Initial residual = 0.03782433, Final residual = 2.421419e-17, No Iterations 1
DILUPBiCGStab:  Solving for ILambda_3_0, Initial residual = 0.007465346, Final residual = 5.335391e-18, No Iterations 1
DILUPBiCGStab:  Solving for ILambda_4_0, Initial residual = 0.00748713, Final residual = 0.0005363867, No Iterations 2
DILUPBiCGStab:  Solving for ILambda_5_0, Initial residual = 0.04030327, Final residual = 0.001889971, No Iterations 4
DILUPBiCGStab:  Solving for ILambda_6_0, Initial residual = 0.05170481, Final residual = 0.004407992, No Iterations 3
DILUPBiCGStab:  Solving for ILambda_7_0, Initial residual = 0.02742892, Final residual = 0.002738348, No Iterations 3
DILUPBiCGStab:  Solving for ILambda_8_0, Initial residual = 0.01287685, Final residual = 1.127e-17, No Iterations 1
DILUPBiCGStab:  Solving for ILambda_9_0, Initial residual = 0.02453591, Final residual = 2.185475e-17, No Iterations 1
DILUPBiCGStab:  Solving for ILambda_10_0, Initial residual = 0.0250601, Final residual = 2.858849e-17, No Iterations 1
DILUPBiCGStab:  Solving for ILambda_11_0, Initial residual = 0.01658044, Final residual = 3.899212e-17, No Iterations 1
DILUPBiCGStab:  Solving for ILambda_12_0, Initial residual = 0.0195155, Final residual = 0.001393553, No Iterations 3
DILUPBiCGStab:  Solving for ILambda_13_0, Initial residual = 0.03443766, Final residual = 0.002929248, No Iterations 6
DILUPBiCGStab:  Solving for ILambda_14_0, Initial residual = 0.04048014, Final residual = 0.003887325, No Iterations 8
DILUPBiCGStab:  Solving for ILambda_15_0, Initial residual = 0.03925536, Final residual = 0.003767875, No Iterations 8
Radiation solver iter: 6
DILUPBiCGStab:  Solving for ILambda_0_0, Initial residual = 0.04403078, Final residual = 5.400572e-17, No Iterations 1
DILUPBiCGStab:  Solving for ILambda_1_0, Initial residual = 0.03960308, Final residual = 2.838118e-17, No Iterations 1
DILUPBiCGStab:  Solving for ILambda_2_0, Initial residual = 0.02581603, Final residual = 1.59721e-17, No Iterations 1
DILUPBiCGStab:  Solving for ILambda_3_0, Initial residual = 0.002972644, Final residual = 1.602279e-18, No Iterations 1
DILUPBiCGStab:  Solving for ILambda_4_0, Initial residual = 0.002847985, Final residual = 0.0001851886, No Iterations 2
DILUPBiCGStab:  Solving for ILambda_5_0, Initial residual = 0.02673414, Final residual = 0.002075186, No Iterations 3
DILUPBiCGStab:  Solving for ILambda_6_0, Initial residual = 0.04027852, Final residual = 0.001402244, No Iterations 4
DILUPBiCGStab:  Solving for ILambda_7_0, Initial residual = 0.02155995, Final residual = 0.001585473, No Iterations 4
DILUPBiCGStab:  Solving for ILambda_8_0, Initial residual = 0.01148596, Final residual = 9.158214e-18, No Iterations 1
DILUPBiCGStab:  Solving for ILambda_9_0, Initial residual = 0.02189173, Final residual = 1.837853e-17, No Iterations 1
DILUPBiCGStab:  Solving for ILambda_10_0, Initial residual = 0.02069666, Final residual = 2.474773e-17, No Iterations 1
DILUPBiCGStab:  Solving for ILambda_11_0, Initial residual = 0.01461769, Final residual = 3.470765e-17, No Iterations 1
DILUPBiCGStab:  Solving for ILambda_12_0, Initial residual = 0.01695287, Final residual = 0.001356678, No Iterations 3
DILUPBiCGStab:  Solving for ILambda_13_0, Initial residual = 0.02806713, Final residual = 0.002519473, No Iterations 6
DILUPBiCGStab:  Solving for ILambda_14_0, Initial residual = 0.03623142, Final residual = 0.003035216, No Iterations 6
DILUPBiCGStab:  Solving for ILambda_15_0, Initial residual = 0.03549035, Final residual = 0.0006335778, No Iterations 11
Radiation solver iter: 7
DILUPBiCGStab:  Solving for ILambda_0_0, Initial residual = 0.03589053, Final residual = 4.061945e-17, No Iterations 1
DILUPBiCGStab:  Solving for ILambda_1_0, Initial residual = 0.03041755, Final residual = 1.736432e-17, No Iterations 1
DILUPBiCGStab:  Solving for ILambda_2_0, Initial residual = 0.01689992, Final residual = 8.590857e-18, No Iterations 1
DILUPBiCGStab:  Solving for ILambda_3_0, Initial residual = 0.001087039, Final residual = 6.619373e-19, No Iterations 1
DILUPBiCGStab:  Solving for ILambda_4_0, Initial residual = 0.001053928, Final residual = 8.143231e-05, No Iterations 2
DILUPBiCGStab:  Solving for ILambda_5_0, Initial residual = 0.01704583, Final residual = 0.001057891, No Iterations 3
DILUPBiCGStab:  Solving for ILambda_6_0, Initial residual = 0.03089298, Final residual = 0.002332343, No Iterations 2
DILUPBiCGStab:  Solving for ILambda_7_0, Initial residual = 0.01704548, Final residual = 0.0008290434, No Iterations 4
DILUPBiCGStab:  Solving for ILambda_8_0, Initial residual = 0.009969124, Final residual = 7.462055e-18, No Iterations 1
DILUPBiCGStab:  Solving for ILambda_9_0, Initial residual = 0.0192154, Final residual = 1.539773e-17, No Iterations 1
DILUPBiCGStab:  Solving for ILambda_10_0, Initial residual = 0.01692305, Final residual = 1.996144e-17, No Iterations 1
DILUPBiCGStab:  Solving for ILambda_11_0, Initial residual = 0.01174959, Final residual = 2.747771e-17, No Iterations 1
DILUPBiCGStab:  Solving for ILambda_12_0, Initial residual = 0.01325443, Final residual = 0.001162836, No Iterations 3
DILUPBiCGStab:  Solving for ILambda_13_0, Initial residual = 0.02269806, Final residual = 0.002082569, No Iterations 7
DILUPBiCGStab:  Solving for ILambda_14_0, Initial residual = 0.03156553, Final residual = 0.003134325, No Iterations 8
DILUPBiCGStab:  Solving for ILambda_15_0, Initial residual = 0.03049854, Final residual = 0.00179616, No Iterations 7
Radiation solver iter: 8
DILUPBiCGStab:  Solving for ILambda_0_0, Initial residual = 0.02908468, Final residual = 3.198301e-17, No Iterations 1
DILUPBiCGStab:  Solving for ILambda_1_0, Initial residual = 0.02344086, Final residual = 1.232184e-17, No Iterations 1
DILUPBiCGStab:  Solving for ILambda_2_0, Initial residual = 0.0105823, Final residual = 5.706232e-18, No Iterations 1
DILUPBiCGStab:  Solving for ILambda_3_0, Initial residual = 0.0004192673, Final residual = 3.791943e-19, No Iterations 1
[...]
DILUPBiCGStab:  Solving for ILambda_3_0, Initial residual = 0.02597629, Final residual = 1.986914e-17, No Iterations 1
DILUPBiCGStab:  Solving for ILambda_4_0, Initial residual = 0.02599488, Final residual = 0.002249064, No Iterations 2
DILUPBiCGStab:  Solving for ILambda_5_0, Initial residual = 0.0909607, Final residual = 0.008270103, No Iterations 3
DILUPBiCGStab:  Solving for ILambda_6_0, Initial residual = 0.1125141, Final residual = 0.004067873, No Iterations 5
DILUPBiCGStab:  Solving for ILambda_7_0, Initial residual = 0.08844176, Final residual = 0.007351351, No Iterations 4
DILUPBiCGStab:  Solving for ILambda_8_0, Initial residual = 0.03804749, Final residual = 2.993043e-17, No Iterations 1
DILUPBiCGStab:  Solving for ILambda_9_0, Initial residual = 0.07241706, Final residual = 6.651413e-17, No Iterations 1
DILUPBiCGStab:  Solving for ILambda_10_0, Initial residual = 0.08342917, Final residual = 9.397126e-17, No Iterations 1
DILUPBiCGStab:  Solving for ILambda_11_0, Initial residual = 0.05769838, Final residual = 1.134098e-16, No Iterations 1
DILUPBiCGStab:  Solving for ILambda_12_0, Initial residual = 0.06704443, Final residual = 0.005131019, No Iterations 3
DILUPBiCGStab:  Solving for ILambda_13_0, Initial residual = 0.1086305, Final residual = 0.009741625, No Iterations 5
DILUPBiCGStab:  Solving for ILambda_14_0, Initial residual = 0.1082591, Final residual = 0.007008268, No Iterations 9
DILUPBiCGStab:  Solving for ILambda_15_0, Initial residual = 0.09711195, Final residual = 0.009669127, No Iterations 7
Radiation solver iter: 5
DILUPBiCGStab:  Solving for ILambda_0_0, Initial residual = 0.09863551, Final residual = 1.356462e-16, No Iterations 1
DILUPBiCGStab:  Solving for ILambda_1_0, Initial residual = 0.08375361, Final residual = 6.005075e-17, No Iterations 1
DILUPBiCGStab:  Solving for ILambda_2_0, Initial residual = 0.059123, Final residual = 4.178484e-17, No Iterations 1
DILUPBiCGStab:  Solving for ILambda_3_0, Initial residual = 0.01089645, Final residual = 7.838165e-18, No Iterations 1
DILUPBiCGStab:  Solving for ILambda_4_0, Initial residual = 0.0112317, Final residual = 0.0007449883, No Iterations 2
DILUPBiCGStab:  Solving for ILambda_5_0, Initial residual = 0.06178909, Final residual = 0.005786379, No Iterations 3
DILUPBiCGStab:  Solving for ILambda_6_0, Initial residual = 0.0876521, Final residual = 0.006955081, No Iterations 5
DILUPBiCGStab:  Solving for ILambda_7_0, Initial residual = 0.06821173, Final residual = 0.00208612, No Iterations 5
DILUPBiCGStab:  Solving for ILambda_8_0, Initial residual = 0.03516318, Final residual = 2.866285e-17, No Iterations 1
DILUPBiCGStab:  Solving for ILambda_9_0, Initial residual = 0.06619222, Final residual = 5.875721e-17, No Iterations 1
DILUPBiCGStab:  Solving for ILambda_10_0, Initial residual = 0.06823265, Final residual = 7.182067e-17, No Iterations 1
DILUPBiCGStab:  Solving for ILambda_11_0, Initial residual = 0.04698398, Final residual = 1.111154e-16, No Iterations 1
DILUPBiCGStab:  Solving for ILambda_12_0, Initial residual = 0.05594853, Final residual = 0.003894284, No Iterations 3
DILUPBiCGStab:  Solving for ILambda_13_0, Initial residual = 0.08856631, Final residual = 0.007077784, No Iterations 6
DILUPBiCGStab:  Solving for ILambda_14_0, Initial residual = 0.0986921, Final residual = 0.00727777, No Iterations 9
DILUPBiCGStab:  Solving for ILambda_15_0, Initial residual = 0.09079701, Final residual = 0.008303273, No Iterations 7
Radiation solver iter: 6
DILUPBiCGStab:  Solving for ILambda_0_0, Initial residual = 0.0809271, Final residual = 9.981337e-17, No Iterations 1
DILUPBiCGStab:  Solving for ILambda_1_0, Initial residual = 0.06518081, Final residual = 4.718422e-17, No Iterations 1
DILUPBiCGStab:  Solving for ILambda_2_0, Initial residual = 0.03973916, Final residual = 2.729342e-17, No Iterations 1
DILUPBiCGStab:  Solving for ILambda_3_0, Initial residual = 0.004344734, Final residual = 2.860989e-18, No Iterations 1
DILUPBiCGStab:  Solving for ILambda_4_0, Initial residual = 0.004370931, Final residual = 0.0002547732, No Iterations 2
DILUPBiCGStab:  Solving for ILambda_5_0, Initial residual = 0.04022573, Final residual = 0.003054961, No Iterations 3
DILUPBiCGStab:  Solving for ILambda_6_0, Initial residual = 0.06804868, Final residual = 0.006055909, No Iterations 3
DILUPBiCGStab:  Solving for ILambda_7_0, Initial residual = 0.05323357, Final residual = 0.003537465, No Iterations 3
DILUPBiCGStab:  Solving for ILambda_8_0, Initial residual = 0.0320888, Final residual = 2.672273e-17, No Iterations 1
DILUPBiCGStab:  Solving for ILambda_9_0, Initial residual = 0.05908306, Final residual = 4.66478e-17, No Iterations 1
DILUPBiCGStab:  Solving for ILambda_10_0, Initial residual = 0.05568001, Final residual = 5.943449e-17, No Iterations 1
DILUPBiCGStab:  Solving for ILambda_11_0, Initial residual = 0.04267849, Final residual = 9.969935e-17, No Iterations 1
DILUPBiCGStab:  Solving for ILambda_12_0, Initial residual = 0.04924169, Final residual = 0.004110381, No Iterations 3
DILUPBiCGStab:  Solving for ILambda_13_0, Initial residual = 0.07122708, Final residual = 0.006851931, No Iterations 6
DILUPBiCGStab:  Solving for ILambda_14_0, Initial residual = 0.08731403, Final residual = 0.008535744, No Iterations 4
DILUPBiCGStab:  Solving for ILambda_15_0, Initial residual = 0.08394887, Final residual = 0.006201284, No Iterations 7
Radiation solver iter: 7
DILUPBiCGStab:  Solving for ILambda_0_0, Initial residual = 0.06533995, Final residual = 7.883918e-17, No Iterations 1
DILUPBiCGStab:  Solving for ILambda_1_0, Initial residual = 0.05016652, Final residual = 2.632181e-17, No Iterations 1
DILUPBiCGStab:  Solving for ILambda_2_0, Initial residual = 0.02558459, Final residual = 1.431978e-17, No Iterations 1
DILUPBiCGStab:  Solving for ILambda_3_0, Initial residual = 0.001585758, Final residual = 9.888416e-19, No Iterations 1
DILUPBiCGStab:  Solving for ILambda_4_0, Initial residual = 0.001626708, Final residual = 0.0001173487, No Iterations 2
DILUPBiCGStab:  Solving for ILambda_5_0, Initial residual = 0.02484395, Final residual = 0.002217835, No Iterations 2
DILUPBiCGStab:  Solving for ILambda_6_0, Initial residual = 0.0530391, Final residual = 0.004415172, No Iterations 2
DILUPBiCGStab:  Solving for ILambda_7_0, Initial residual = 0.04223976, Final residual = 0.00127716, No Iterations 4
DILUPBiCGStab:  Solving for ILambda_8_0, Initial residual = 0.02859285, Final residual = 2.039034e-17, No Iterations 1
DILUPBiCGStab:  Solving for ILambda_9_0, Initial residual = 0.05215118, Final residual = 4.257652e-17, No Iterations 1
DILUPBiCGStab:  Solving for ILambda_10_0, Initial residual = 0.04573146, Final residual = 5.043011e-17, No Iterations 1
DILUPBiCGStab:  Solving for ILambda_11_0, Initial residual = 0.03591489, Final residual = 8.229158e-17, No Iterations 1
DILUPBiCGStab:  Solving for ILambda_12_0, Initial residual = 0.04024247, Final residual = 0.003396054, No Iterations 3
DILUPBiCGStab:  Solving for ILambda_13_0, Initial residual = 0.05873897, Final residual = 0.005055444, No Iterations 5
DILUPBiCGStab:  Solving for ILambda_14_0, Initial residual = 0.07773992, Final residual = 0.004783125, No Iterations 6
DILUPBiCGStab:  Solving for ILambda_15_0, Initial residual = 0.07416809, Final residual = 0.006409916, No Iterations 5
Radiation solver iter: 8
DILUPBiCGStab:  Solving for ILambda_0_0, Initial residual = 0.05220069, Final residual = 5.437162e-17, No Iterations 1
DILUPBiCGStab:  Solving for ILambda_1_0, Initial residual = 0.03872679, Final residual = 1.850973e-17, No Iterations 1
DILUPBiCGStab:  Solving for ILambda_2_0, Initial residual = 0.01578546, Final residual = 8.007804e-18, No Iterations 1
DILUPBiCGStab:  Solving for ILambda_3_0, Initial residual = 0.0006201311, Final residual = 5.285265e-19, No Iterations 1
DILUPBiCGStab:  Solving for ILambda_4_0, Initial residual = 0.0006602591, Final residual = 8.454292e-05, No Iterations 2
DILUPBiCGStab:  Solving for ILambda_5_0, Initial residual = 0.01458636, Final residual = 0.0008509855, No Iterations 4
DILUPBiCGStab:  Solving for ILambda_6_0, Initial residual = 0.04164046, Final residual = 0.00274302, No Iterations 3
DILUPBiCGStab:  Solving for ILambda_7_0, Initial residual = 0.03333634, Final residual = 0.002453297, No Iterations 2
DILUPBiCGStab:  Solving for ILambda_8_0, Initial residual = 0.02478114, Final residual = 2.017598e-17, No Iterations 1
DILUPBiCGStab:  Solving for ILambda_9_0, Initial residual = 0.04559945, Final residual = 3.298736e-17, No Iterations 1
DILUPBiCGStab:  Solving for ILambda_10_0, Initial residual = 0.0374137, Final residual = 4.097226e-17, No Iterations 1
DILUPBiCGStab:  Solving for ILambda_11_0, Initial residual = 0.02734448, Final residual = 5.971656e-17, No Iterations 1
DILUPBiCGStab:  Solving for ILambda_12_0, Initial residual = 0.03030451, Final residual = 0.002790933, No Iterations 3
DILUPBiCGStab:  Solving for ILambda_13_0, Initial residual = 0.04889994, Final residual = 0.004596072, No Iterations 5
DILUPBiCGStab:  Solving for ILambda_14_0, Initial residual = 0.06897633, Final residual = 0.00514966, No Iterations 6
DILUPBiCGStab:  Solving for ILambda_15_0, Initial residual = 0.06445202, Final residual = 0.002560416, No Iterations 7
Radiation solver iter: 9
DILUPBiCGStab:  Solving for ILambda_0_0, Initial residual = 0.04159918, Final residual = 4.722474e-17, No Iterations 1
DILUPBiCGStab:  Solving for ILambda_1_0, Initial residual = 0.03024444, Final residual = 1.779725e-17, No Iterations 1
DILUPBiCGStab:  Solving for ILambda_2_0, Initial residual = 0.009427256, Final residual = 4.583246e-18, No Iterations 1
DILUPBiCGStab:  Solving for ILambda_5_0, Initial residual = 0.008382766, Final residual = 0.0006478744, No Iterations 2
DILUPBiCGStab:  Solving for ILambda_6_0, Initial residual = 0.03257422, Final residual = 0.002476509, No Iterations 3
DILUPBiCGStab:  Solving for ILambda_7_0, Initial residual = 0.02663226, Final residual = 0.001846077, No Iterations 2
DILUPBiCGStab:  Solving for ILambda_8_0, Initial residual = 0.02120737, Final residual = 1.29583e-17, No Iterations 1
DILUPBiCGStab:  Solving for ILambda_9_0, Initial residual = 0.03964362, Final residual = 3.358856e-17, No Iterations 1
DILUPBiCGStab:  Solving for ILambda_10_0, Initial residual = 0.03079509, Final residual = 3.645188e-17, No Iterations 1
DILUPBiCGStab:  Solving for ILambda_11_0, Initial residual = 0.01998174, Final residual = 4.658487e-17, No Iterations 1
DILUPBiCGStab:  Solving for ILambda_12_0, Initial residual = 0.02218938, Final residual = 0.001766517, No Iterations 3
DILUPBiCGStab:  Solving for ILambda_13_0, Initial residual = 0.04076417, Final residual = 0.00406029, No Iterations 4
DILUPBiCGStab:  Solving for ILambda_14_0, Initial residual = 0.06055619, Final residual = 0.00561611, No Iterations 4
DILUPBiCGStab:  Solving for ILambda_15_0, Initial residual = 0.05440692, Final residual = 0.003862138, No Iterations 5
Radiation solver iter: 10
DILUPBiCGStab:  Solving for ILambda_0_0, Initial residual = 0.03316685, Final residual = 2.936557e-17, No Iterations 1
DILUPBiCGStab:  Solving for ILambda_1_0, Initial residual = 0.02387785, Final residual = 1.03352e-17, No Iterations 1
DILUPBiCGStab:  Solving for ILambda_2_0, Initial residual = 0.005476249, Final residual = 2.435633e-18, No Iterations 1
DILUPBiCGStab:  Solving for ILambda_5_0, Initial residual = 0.004685809, Final residual = 0.0003700331, No Iterations 2
DILUPBiCGStab:  Solving for ILambda_6_0, Initial residual = 0.02564577, Final residual = 0.0002459049, No Iterations 4
DILUPBiCGStab:  Solving for ILambda_7_0, Initial residual = 0.0213297, Final residual = 0.001489721, No Iterations 2
DILUPBiCGStab:  Solving for ILambda_8_0, Initial residual = 0.01815508, Final residual = 1.280445e-17, No Iterations 1
DILUPBiCGStab:  Solving for ILambda_9_0, Initial residual = 0.03425109, Final residual = 2.53144e-17, No Iterations 1
DILUPBiCGStab:  Solving for ILambda_10_0, Initial residual = 0.02553041, Final residual = 2.765317e-17, No Iterations 1
DILUPBiCGStab:  Solving for ILambda_11_0, Initial residual = 0.0148549, Final residual = 3.466147e-17, No Iterations 1
DILUPBiCGStab:  Solving for ILambda_12_0, Initial residual = 0.01685987, Final residual = 0.001488899, No Iterations 3
DILUPBiCGStab:  Solving for ILambda_13_0, Initial residual = 0.034272, Final residual = 0.003329993, No Iterations 5
DILUPBiCGStab:  Solving for ILambda_14_0, Initial residual = 0.05302452, Final residual = 0.004622639, No Iterations 4
DILUPBiCGStab:  Solving for ILambda_15_0, Initial residual = 0.04645203, Final residual = 0.004101407, No Iterations 5
Radiation solver iter: 11
DILUPBiCGStab:  Solving for ILambda_0_0, Initial residual = 0.02652214, Final residual = 2.477736e-17, No Iterations 1
DILUPBiCGStab:  Solving for ILambda_1_0, Initial residual = 0.01889344, Final residual = 8.544774e-18, No Iterations 1
DILUPBiCGStab:  Solving for ILambda_2_0, Initial residual = 0.003102264, Final residual = 1.128118e-18, No Iterations 1
DILUPBiCGStab:  Solving for ILambda_5_0, Initial residual = 0.002553015, Final residual = 0.0001527312, No Iterations 2
DILUPBiCGStab:  Solving for ILambda_6_0, Initial residual = 0.01963702, Final residual = 0.001673857, No Iterations 3
DILUPBiCGStab:  Solving for ILambda_7_0, Initial residual = 0.01715595, Final residual = 0.001257984, No Iterations 2
DILUPBiCGStab:  Solving for ILambda_8_0, Initial residual = 0.01558449, Final residual = 9.80148e-18, No Iterations 1
DILUPBiCGStab:  Solving for ILambda_9_0, Initial residual = 0.02925674, Final residual = 2.049142e-17, No Iterations 1
DILUPBiCGStab:  Solving for ILambda_10_0, Initial residual = 0.02098437, Final residual = 2.302082e-17, No Iterations 1
DILUPBiCGStab:  Solving for ILambda_11_0, Initial residual = 0.01124851, Final residual = 2.508109e-17, No Iterations 1
DILUPBiCGStab:  Solving for ILambda_12_0, Initial residual = 0.01259635, Final residual = 0.001156161, No Iterations 3
DILUPBiCGStab:  Solving for ILambda_13_0, Initial residual = 0.02801192, Final residual = 0.002104312, No Iterations 5
DILUPBiCGStab:  Solving for ILambda_14_0, Initial residual = 0.04539113, Final residual = 0.00330131, No Iterations 5
DILUPBiCGStab:  Solving for ILambda_15_0, Initial residual = 0.03948387, Final residual = 0.0008336564, No Iterations 7
Radiation solver iter: 12
DILUPBiCGStab:  Solving for ILambda_0_0, Initial residual = 0.02127579, Final residual = 1.742518e-17, No Iterations 1
DILUPBiCGStab:  Solving for ILambda_1_0, Initial residual = 0.01480554, Final residual = 5.810818e-18, No Iterations 1
DILUPBiCGStab:  Solving for ILambda_2_0, Initial residual = 0.001708737, Final residual = 7.552855e-19, No Iterations 1
DILUPBiCGStab:  Solving for ILambda_5_0, Initial residual = 0.001377202, Final residual = 0.000119349, No Iterations 2
DILUPBiCGStab:  Solving for ILambda_6_0, Initial residual = 0.01509262, Final residual = 0.001313652, No Iterations 2
DILUPBiCGStab:  Solving for ILambda_7_0, Initial residual = 0.01384722, Final residual = 0.001079363, No Iterations 2
DILUPBiCGStab:  Solving for ILambda_8_0, Initial residual = 0.0133305, Final residual = 8.283766e-18, No Iterations 1
DILUPBiCGStab:  Solving for ILambda_9_0, Initial residual = 0.02466325, Final residual = 1.540935e-17, No Iterations 1
DILUPBiCGStab:  Solving for ILambda_10_0, Initial residual = 0.0169169, Final residual = 1.680212e-17, No Iterations 1
DILUPBiCGStab:  Solving for ILambda_11_0, Initial residual = 0.008765665, Final residual = 1.878021e-17, No Iterations 1
DILUPBiCGStab:  Solving for ILambda_12_0, Initial residual = 0.00985402, Final residual = 0.0009760109, No Iterations 3
DILUPBiCGStab:  Solving for ILambda_13_0, Initial residual = 0.02241384, Final residual = 0.001216026, No Iterations 6
DILUPBiCGStab:  Solving for ILambda_14_0, Initial residual = 0.03833852, Final residual = 0.003496318, No Iterations 3
DILUPBiCGStab:  Solving for ILambda_15_0, Initial residual = 0.03305958, Final residual = 0.003289847, No Iterations 3
Radiation solver iter: 13
DILUPBiCGStab:  Solving for ILambda_0_0, Initial residual = 0.01713629, Final residual = 1.252526e-17, No Iterations 1
DILUPBiCGStab:  Solving for ILambda_1_0, Initial residual = 0.01141963, Final residual = 4.326188e-18, No Iterations 1
DILUPBiCGStab:  Solving for ILambda_2_0, Initial residual = 0.0009219293, Final residual = 4.770734e-19, No Iterations 1
DILUPBiCGStab:  Solving for ILambda_5_0, Initial residual = 0.0007434125, Final residual = 9.000231e-05, No Iterations 2
DILUPBiCGStab:  Solving for ILambda_6_0, Initial residual = 0.01140246, Final residual = 0.0005798186, No Iterations 2
DILUPBiCGStab:  Solving for ILambda_7_0, Initial residual = 0.01121237, Final residual = 0.0009379257, No Iterations 2
DILUPBiCGStab:  Solving for ILambda_8_0, Initial residual = 0.01143732, Final residual = 7.898249e-18, No Iterations 1
DILUPBiCGStab:  Solving for ILambda_9_0, Initial residual = 0.02060733, Final residual = 1.325795e-17, No Iterations 1
DILUPBiCGStab:  Solving for ILambda_10_0, Initial residual = 0.01348952, Final residual = 1.254992e-17, No Iterations 1
DILUPBiCGStab:  Solving for ILambda_11_0, Initial residual = 0.007229617, Final residual = 1.545485e-17, No Iterations 1
DILUPBiCGStab:  Solving for ILambda_12_0, Initial residual = 0.008130787, Final residual = 0.0004794633, No Iterations 4
DILUPBiCGStab:  Solving for ILambda_13_0, Initial residual = 0.01774498, Final residual = 0.001002444, No Iterations 6
DILUPBiCGStab:  Solving for ILambda_14_0, Initial residual = 0.03219269, Final residual = 0.002883049, No Iterations 3
DILUPBiCGStab:  Solving for ILambda_15_0, Initial residual = 0.02846625, Final residual = 0.001859282, No Iterations 4
Radiation solver iter: 14
DILUPBiCGStab:  Solving for ILambda_0_0, Initial residual = 0.01383786, Final residual = 9.62412e-18, No Iterations 1
DILUPBiCGStab:  Solving for ILambda_1_0, Initial residual = 0.008614688, Final residual = 3.12352e-18, No Iterations 1
DILUPBiCGStab:  Solving for ILambda_6_0, Initial residual = 0.008238713, Final residual = 0.0006172893, No Iterations 2
DILUPBiCGStab:  Solving for ILambda_7_0, Initial residual = 0.009112382, Final residual = 0.0008303047, No Iterations 2
DILUPBiCGStab:  Solving for ILambda_8_0, Initial residual = 0.009721318, Final residual = 7.578983e-18, No Iterations 1
DILUPBiCGStab:  Solving for ILambda_9_0, Initial residual = 0.01702408, Final residual = 9.774559e-18, No Iterations 1
DILUPBiCGStab:  Solving for ILambda_10_0, Initial residual = 0.01062034, Final residual = 9.525947e-18, No Iterations 1
DILUPBiCGStab:  Solving for ILambda_11_0, Initial residual = 0.006069285, Final residual = 1.32525e-17, No Iterations 1
DILUPBiCGStab:  Solving for ILambda_12_0, Initial residual = 0.006782555, Final residual = 0.0005455926, No Iterations 3
DILUPBiCGStab:  Solving for ILambda_13_0, Initial residual = 0.01397085, Final residual = 0.001185715, No Iterations 4
DILUPBiCGStab:  Solving for ILambda_14_0, Initial residual = 0.02666057, Final residual = 0.002163345, No Iterations 3
DILUPBiCGStab:  Solving for ILambda_15_0, Initial residual = 0.02393507, Final residual = 0.002061334, No Iterations 4
GAMG:  Solving for p_rgh, Initial residual = 0.0005055925, Final residual = 1.299619e-06, No Iterations 2
limitVelocity limitU Limited 0 (0%) of cells, with max limit 5
time step continuity errors : sum local = 6.421082e-06, global = -1.979913e-17, cumulative = 2.969235e-15
rho min/max : 0.4784743 0.9462926
DILUPBiCGStab:  Solving for omega, Initial residual = 0.0001674351, Final residual = 4.381899e-06, No Iterations 1
DILUPBiCGStab:  Solving for k, Initial residual = 0.0001483268, Final residual = 7.788369e-06, No Iterations 1
ExecutionTime = 49.42 s  ClockTime = 50 s

surfaceFieldValue wallT write:
    areaAverage(plate) of T = 610.4699

surfaceFieldValue wallTriser write:
    areaAverage(riser) of T = 393.0338

End

